/batch
/config,noeldb,1     ! force off writing results to database
*get,_wallstrt,active,,time,wall
! ANSYS input file written by Workbench version 17.1 ALPHA
! File used for geometry attach: I:\Projects_2009-2010\WB_cyc_modal\WB_verification_cyc_modal_dated_22032010\Sector_model_files\dp0\SYS\DM\SYS.agdb
/title,TechDemoWB--Static Structural (A5)
*DIM,_wb_ProjectScratch_dir,string,248
_wb_ProjectScratch_dir(1) = 'B:\Databases\Themes\Cyclic\TechDemoWB\_ProjectScratch\Scr6583\'
*DIM,_wb_SolverFiles_dir,string,248
_wb_SolverFiles_dir(1) = 'B:\Databases\Themes\Cyclic\TechDemoWB\TechDemoWB_files\dp0\SYS-1\MECH\'
*DIM,_wb_userfiles_dir,string,248
_wb_userfiles_dir(1) = 'B:\Databases\Themes\Cyclic\TechDemoWB\TechDemoWB_files\user_files\'
/com,--- Data in consistent BIN units. See Solving Units in the help system for more information.
/units,BIN
/nopr
/wb,file,start              !  signify a WB generated input file
/prep7
! Turn off shape checking because checks already performed inside WB mesher.
! See help system for more information.
SHPP,OFF,,NOWARN
/nolist
etcon,set             ! allow ANSYS to choose best KEYOP's for 180x elements
/com,*********** Nodes for the whole assembly ***********
nblock,3
(1i9,3e20.9e3)
        1    3.005479520E+000    4.655000000E+000    2.331846661E+000
        2    2.714782676E+000    4.655000000E+000    2.243755562E+000
        3    2.932805309E+000    4.655000000E+000    2.309823887E+000
        4    2.860131098E+000    4.655000000E+000    2.287801112E+000
        5    2.787456887E+000    4.655000000E+000    2.265778337E+000
        6    3.059682736E+000    4.687500000E+000    2.314535333E+000
        7    3.089022379E+000    4.740000000E+000    2.275230316E+000
        8    1.948279628E+000    4.740000000E+000    1.954591147E+000
        9    2.019031409E+000    4.740000000E+000    1.976476533E+000
       10    2.090268897E+000    4.740000000E+000    1.996728204E+000
       11    2.161608432E+000    4.740000000E+000    2.016621212E+000
       12    2.232947966E+000    4.740000000E+000    2.036514220E+000
       13    2.304287500E+000    4.740000000E+000    2.056407228E+000
       14    2.375627035E+000    4.740000000E+000    2.076300236E+000
       15    2.446966569E+000    4.740000000E+000    2.096193244E+000
       16    2.518306104E+000    4.740000000E+000    2.116086252E+000
       17    2.589645638E+000    4.740000000E+000    2.135979260E+000
       18    2.660985172E+000    4.740000000E+000    2.155872268E+000
       19    2.732324707E+000    4.740000000E+000    2.175765276E+000
       20    2.803664241E+000    4.740000000E+000    2.195658284E+000
! ... 40889 like lines cut
/wb,elem,start            !  set before creation of elements
/com,*********** Elements for Body 1 "Impeller" ***********
et,1,187
eblock,19,solid,,12607
(19i9)
        1        1        1        1        0        0        0        0       10        0    10797      757      868     4434      880    11588    12392    11591    11589
    12390    12449
        1        1        1        1        0        0        0        0       10        0    10798      757      880     4434     4442    11589    12449    11591    11592
    12450    32438
        1        1        1        1        0        0        0        0       10        0    10799      878     1616     4520     1587    12438    17324    12439    12436
    17212    17214
        1        1        1        1        0        0        0        0       10        0    10800      770      878     4520     1587    11712    12439    11717    11713
    12436    17214
        1        1        1        1        0        0        0        0       10        0    10801      756      880     4442      881    11581    12450    11585    11582
    12448    12453
        1        1        1        1        0        0        0        0       10        0    10802      770     1614     4520      878    11715    17315    11717    11712
    12437    12439
        1        1        1        1        0        0        0        0       10        0    10803      745      902      903     2694    11473    12585    11474    11475
    12586    12594
        1        1        1        1        0        0        0        0       10        0    10804      745      902     2694      746    11473    12586    11475    11470
    11485    11486
        1        1        1        1        0        0        0        0       10        0    10805      755     4418      882      881    11577    12456    11574    11573
    12452    12451
        1        1        1        1        0        0        0        0       10        0    10806      745     2694      903     2713    11475    12594    11474    11476
    23336    12595
! ... 25195 like lines cut
!Material Id = {0C6A21C6-540E-4680-A859-884FBBADB38B}
/com,*********** Elements for Body 2 "Shroud" ***********
et,2,187
eblock,19,solid,,10796
(19i9)
        2        2        1        2        0        0        0        0       10        0        1       95     4312     3802       96     7037    28976     7036     7034
     7043     7042
        2        2        1        2        0        0        0        0       10        0        2       96     3797     4312     3802     7041    28946     7043     7042
    28945    28976
        2        2        1        2        0        0        0        0       10        0        3       96     4361     4312     3797     7044    31771     7043     7041
    28947    28946
        2        2        1        2        0        0        0        0       10        0        4       96     3797       97     4361     7041     7048     7040     7044
    28947     7049
        2        2        1        2        0        0        0        0       10        0        5       94     3799       95     4337     7030     7035     7028     7032
    28959     7038
        2        2        1        2        0        0        0        0       10        0        6       54     1512     4312      418     6815    16891     6816     6814
     9220     9224
        2        2        1        2        0        0        0        0       10        0        7       54      418     4312     4361     6814     9224     6816     6817
     9225    31771
        2        2        1        2        0        0        0        0       10        0        8       53     1512     4312       54     6809    16891     6811     6807
     6815     6816
        2        2        1        2        0        0        0        0       10        0        9       44     4361      418       54     6751     9225     6749     6747
     6817     6814
        2        2        1        2        0        0        0        0       10        0       10       52       53     3609     4337     6801     6810     6802     6805
     6812    27913
! ... 21573 like lines cut
!Material Id = {7D25C104-A187-423B-9052-E9AE601F5528}
/wb,elem,end               !  done creating elements
/com,*********** Send User Defined Coordinate System(s) ***********
local,12,1,3.27612167753735e-016,5.4199998475843,3.27612167753735e-016,-0.,-90.,-0.
csys,0
toffst,459.67,  ! Temperature offset from absolute zero
/com,*********** Set Reference Temperature ***********
tref,71.6
/wb,mat,start              !  starting to send materials
/com,*********** Send Materials ***********
MP,DENS,1,0.000734544640797411,	! slinch in^-3
MP,ALPX,1,6.66666666666667e-06,	! F^-1
MP,C,1,373722.969668162,	! in^2 s^-2 F^-1
MP,KXX,1,7.55607988605186,	! slinch in s^-3 F^-1
MP,RSVX,1,8.52348993288591,	! ohm cmil in^-1
MP,EX,1,29007553.3841765,	! slinch s^-2 in^-1
MP,NUXY,1,0.3,
MP,MURX,1,10000,

MP,DENS,2,0.000734544640797411,	! slinch in^-3
MP,ALPX,2,6.66666666666667e-06,	! F^-1
MP,C,2,373722.969668162,	! in^2 s^-2 F^-1
MP,KXX,2,7.55607988605186,	! slinch in s^-3 F^-1
MP,RSVX,2,8.52348993288591,	! ohm cmil in^-1
MP,EX,2,29007553.3841765,	! slinch s^-2 in^-1
MP,NUXY,2,0.3,
MP,MURX,2,10000,

/wb,mat,end                !  done sending materials
!************************* Model Summary ********************
!Impeller,	Structural Steel,	matid,	1
!Shroud,	Structural Steel,	matid,	2
!************************* End Model Summary ********************
! get the diagonal of the bounding box. Needed later for other things
*get,_xmin,node,,mnloc,x
*get,_ymin,node,,mnloc,y
*get,_zmin,node,,mnloc,z
*get,_xmax,node,,mxloc,x
*get,_ymax,node,,mxloc,y
*get,_zmax,node,,mxloc,z
_ASMDIAG=(_xmax-_xmin)*(_xmax-_xmin)+(_ymax-_ymin)*(_ymax-_ymin)+(_zmax-_zmin)*(_zmax-_zmin)
_ASMDIAG=SQRT(_ASMDIAG)
/wb,contact,start          !  starting to send contact
/com,*********** Create Contact "Contact Region 2" ***********
/com,            Real Constant Set For Above Contact Is 4 & 3 
*set,tid,4
*set,cid,3
r,tid
r,cid
et,tid,170
et,cid,174
eblock,10,,,403
(15i9)
    23404        4        4        4        0      401     1507      391      391     9108     9030      391     9029
    23405        4        4        4        0     1507      400      390      390     9102     9020      390     9021
    23406        4        4        4        0     1508      401      391      391     9109     9029      391     9031
    23407        4        4        4        0      402     1508      392      392     9115     9040      392     9039
    23408        4        4        4        0      389      390      399      399     9010     9019      399     9012
    23409        4        4        4        0      390      391     1507     1507     9018     9030     1507     9021
    23410        4        4        4        0      391      392     1508     1508     9028     9040     1508     9031
    23411        4        4        4        0      392      393      402      402     9038     9048      402     9039
    23412        4        4        4        0      400      399      390      390     9094     9019      390     9020
    23413        4        4        4        0      403      402      393      393     9114     9048      393     9049
    23414        4        4        4        0      418     1512     3669     3669     9220    16890     3669     9221
    23415        4        4        4        0     1512      417     3669     3669     9213     9216     3669    16890
    23416        4        4        4        0     1507      401     3664     3664     9108     9110     3664    16864
    23417        4        4        4        0      417     1511     3668     3668     9212    16888     3668     9215
    23418        4        4        4        0      416     1510     3667     3667     9204    16881     3667     9208
    23419        4        4        4        0      400     1507     3663     3663     9102    16863     3663     9103
    23420        4        4        4        0      415     1509     3666     3666     9195    16875     3666     9199
    23421        4        4        4        0     1509      414     3666     3666     9187     9190     3666    16875
    23422        4        4        4        0     1511      416     3668     3668     9205     9209     3668    16888
    23423        4        4        4        0     1510      415     3667     3667     9196     9200     3667    16881
! ... 384 like lines cut
eblock,10,,,403
(15i9)
    23807        3        3        3        0      401     1507      391      391     9108     9030      391     9029
    23808        3        3        3        0     1507      400      390      390     9102     9020      390     9021
    23809        3        3        3        0     1508      401      391      391     9109     9029      391     9031
    23810        3        3        3        0      402     1508      392      392     9115     9040      392     9039
    23811        3        3        3        0      389      390      399      399     9010     9019      399     9012
    23812        3        3        3        0      390      391     1507     1507     9018     9030     1507     9021
    23813        3        3        3        0      391      392     1508     1508     9028     9040     1508     9031
    23814        3        3        3        0      392      393      402      402     9038     9048      402     9039
    23815        3        3        3        0      400      399      390      390     9094     9019      390     9020
    23816        3        3        3        0      403      402      393      393     9114     9048      393     9049
    23817        3        3        3        0      418     1512     3669     3669     9220    16890     3669     9221
    23818        3        3        3        0     1512      417     3669     3669     9213     9216     3669    16890
    23819        3        3        3        0     1507      401     3664     3664     9108     9110     3664    16864
    23820        3        3        3        0      417     1511     3668     3668     9212    16888     3668     9215
    23821        3        3        3        0      416     1510     3667     3667     9204    16881     3667     9208
    23822        3        3        3        0      400     1507     3663     3663     9102    16863     3663     9103
    23823        3        3        3        0      415     1509     3666     3666     9195    16875     3666     9199
    23824        3        3        3        0     1509      414     3666     3666     9187     9190     3666    16875
    23825        3        3        3        0     1511      416     3668     3668     9205     9209     3668    16888
    23826        3        3        3        0     1510      415     3667     3667     9196     9200     3667    16881
! ... 384 like lines cut
eblock,10,,,165
(15i9)
    24210        3        4        3        0     1575     1576     1574     1574    17166    17160     1574    17159
    24211        3        4        3        0     1576      653     1574     1574    10748    10747     1574    17160
    24212        3        4        3        0      654     1577     1573     1573    10753    17154     1573    10752
    24213        3        4        3        0     1574     1573     1575     1575    17152    17153     1575    17159
    24214        3        4        3        0     1577      655     1573     1573    10760    10758     1573    17154
    24215        3        4        3        0     1575     1573      655      655    17153    10758      655    10759
    24216        3        4        3        0      653      823     3151     3151    10746    12049     3151    10750
    24217        3        4        3        0     1574      653     3151     3151    10747    10750     3151    17161
    24218        3        4        3        0     1573     1574     3152     3152    17152    17162     3152    17156
    24219        3        4        3        0     1607     1606     3153     3153    17279    17283     3153    17289
    24220        3        4        3        0      823     1607     3151     3151    12047    17288     3151    12049
    24221        3        4        3        0     1604      654     1573     1573    10754    10752     1573    17155
    24222        3        4        3        0      806     1599     1605     1605    11964    17261     1605    11966
    24223        3        4        3        0     1599      807     1605     1605    11972    11974     1605    17261
    24224        3        4        3        0      807     1600      824      824    11973    12051      824    11970
    24225        3        4        3        0      825     1600      794      794    12056    11883      794    11881
    24226        3        4        3        0     1606      829      819      819    12078    12024      819    12025
    24227        3        4        3        0     1605      807      824      824    11974    11970      824    12052
    24228        3        4        3        0      818     1604     3152     3152    12016    17271     3152    12018
    24229        3        4        3        0      794     1603      825      825    11884    12057      825    11881
! ... 146 like lines cut
eblock,10,,,165
(15i9)
    24375        4        3        4        0     1575     1576     1574     1574    17166    17160     1574    17159
    24376        4        3        4        0     1576      653     1574     1574    10748    10747     1574    17160
    24377        4        3        4        0      654     1577     1573     1573    10753    17154     1573    10752
    24378        4        3        4        0     1574     1573     1575     1575    17152    17153     1575    17159
    24379        4        3        4        0     1577      655     1573     1573    10760    10758     1573    17154
    24380        4        3        4        0     1575     1573      655      655    17153    10758      655    10759
    24381        4        3        4        0      653      823     3151     3151    10746    12049     3151    10750
    24382        4        3        4        0     1574      653     3151     3151    10747    10750     3151    17161
    24383        4        3        4        0     1573     1574     3152     3152    17152    17162     3152    17156
    24384        4        3        4        0     1607     1606     3153     3153    17279    17283     3153    17289
    24385        4        3        4        0      823     1607     3151     3151    12047    17288     3151    12049
    24386        4        3        4        0     1604      654     1573     1573    10754    10752     1573    17155
    24387        4        3        4        0      806     1599     1605     1605    11964    17261     1605    11966
    24388        4        3        4        0     1599      807     1605     1605    11972    11974     1605    17261
    24389        4        3        4        0      807     1600      824      824    11973    12051      824    11970
    24390        4        3        4        0      825     1600      794      794    12056    11883      794    11881
    24391        4        3        4        0     1606      829      819      819    12078    12024      819    12025
    24392        4        3        4        0     1605      807      824      824    11974    11970      824    12052
    24393        4        3        4        0      818     1604     3152     3152    12016    17271     3152    12018
    24394        4        3        4        0      794     1603      825      825    11884    12057      825    11881
! ... 146 like lines cut
keyo,cid,12,5              ! bonded always
keyo,cid,2,1               ! penalty function only 
keyo,cid,4,0               ! on Gauss point (from Program Controlled setting)
keyo,cid,9,1               ! ignore initial gaps/penetration
keyo,cid,7,0               ! No Prediction
rmod,tid,3,10.	! FKN
rmod,tid,5,0.	! ICONT
rmod,tid,6,0.	! PINB
rmod,tid,10,0.	! CNOF
rmod,tid,12,0.	! FKT
rmod,tid,36,138	! WB DSID
rmod,cid,3,10.	! FKN
rmod,cid,5,0.	! ICONT
rmod,cid,6,0.	! PINB
rmod,cid,10,0.	! CNOF
rmod,cid,12,0.	! FKT
rmod,cid,36,138	! WB DSID
nsel,all
esel,all
/wb,contact,end            !  done creating contacts
/com,*********** Send Named Selection as Node Component ***********
CMBLOCK,MAIN_BLADE,NODE,     1799
(8i10)
       653       654       655       656       657       658       659       660
       661       662       663       664       665       666       667       668
       725       726       727       728       729       730       731       732
       733       734       735       736       737       738       739       740
       741       742       743       744       745       746       747       748
       749       750       751       752       753       754       755       756
       757       758       759       760       761       762       763       764
       765       766       767       768       769       770       771       772
       773       774       775       776       777       778       779       780
       781       782       783       784       785       786       787       788
       789       790       791       792       793       794       795       796
       797       798       799       800       801       802       803       804
       805       806       807       808       809       810       811       812
       813       814       815       816       817       818       819       820
       821       822       823       824       825       826       827       828
       829       830       831       832       833       834       835       836
       837       838       839       840       841       842       843       844
       845       846       847       848       849       850       851       852
       853       854       855       856       889       890       891       892
       893       894       895       896       897       898       899       900
! ... 205 like lines cut
/com,*********** Send Named Selection as Node Component ***********
CMBLOCK,SPLITTER,NODE,      970
(8i10)
       669       670       671       672       673       674       675       676
       677       678       679       680       681       682       683       684
       685       686       687       688       689       690       691       692
       693       694       695       696       697       698       699       700
       701       702       703       704       705       706       707       708
       709       710       711       712       713       714       715       716
       717       718       719       720       721       722       723       724
       934       935       936       937       938       939       940       941
       942       943       944       945       946       947       948       949
       950       951       952       953       954       955       956       957
       958       959       960       961       962       963       964       965
       966       967       968       969       970       971       972       973
       974       975       976       977       981       982       983       984
       985       986       987       988       989       990       991       992
       993       994       995       996       997       998       999      1000
      1001      1002      1003      1004      1005      1006      1007      1009
      1010      1011      1012      1013      1014      1015      1016      1017
      1018      1019      1020      1021      1022      1023      1024      1025
      1026      1027      1028      1029      1030      1031      1032      1033
      1034      1579      1580      1582      1583      1584      1585      1586
! ... 102 like lines cut
/com,*********** Send Named Selection as Node Component ***********
CMBLOCK,HUB_WALL,NODE,     1346
(8i10)
       542       543       544       545       546       547       548       549
       550       551       552       553       554       555       556       557
       558       559       560       561       562       563       564       565
       566       567       568       569       570       571       572       573
       574       575       576       577       578       579       580       581
       582       583       584       585       586       587       588       589
       590       656       661       663       664       665       668       704
       706       707       708       709       710       711       712       713
       714       725       736       737       738       739       740       741
       742       743       744       751       753       754       755       756
       757       768       770       771       772       773       774       775
       776       777       778       779       847       849       850       851
       852       853       854       855       856       857       858       859
       860       861       862       863       864       865       866       867
       868       869       870       871       872       873       874       875
       876       877       878       879       880       881       882       883
       884       885       886       887       888       889       891       893
       896       905       906       907       908       909       910       911
       921       922       923       924       925       926       927       928
       929       930       931       932       933       934       935       936
! ... 149 like lines cut
/golist
/wb,load,start             !  starting to send loads
CMBLOCK,_CM173_FIXEDSU,NODE,      190
(8i10)
       634       635       636       637       638       639       640       641
       642       643       644       645       646       647       648       649
       650       651      1109      1110      1111      1112      1113      1114
      1115      1116      1117      1118      1119      1120      1121      1122
      1123      1124      1125      1126      1255      1257      1480      1569
      1570      1571      1572      3852      3853      3854      3855      3856
      3857      3858      3859      3860      3861      3862      3863      3864
      3865      3866      3867     10632     10633     10637     10638     10641
     10642     10644     10645     10648     10649     10650     10652     10655
     10656     10659     10662     10663     10666     10669     10670     10672
     10675     10676     10678     10681     10682     10685     10688     10689
     10691     10694     10695     10697     10700     10701     10704     10707
     10708     10710     10713     10716     10719     10720     10722     10725
     10726     10729     10732     10733     10735     10738     10739     14075
     14076     14080     14081     14085     14086     14087     14092     14093
     14094     14099     14100     14101     14106     14107     14108     14112
     14113     14114     14117     14118     14119     14124     14125     14126
     14130     14131     14132     14137     14138     14139     14143     14144
     14145     14149     14150     14151     14155     14156     14157     14163
     14164     14165     14169     14170     14171     14176     14177     14178
! ... 4 like lines cut
/com,*********** Fixed Supports ***********
CMBLOCK,_FIXEDSU,NODE,      190
(8i10)
       634       635       636       637       638       639       640       641
       642       643       644       645       646       647       648       649
       650       651      1109      1110      1111      1112      1113      1114
      1115      1116      1117      1118      1119      1120      1121      1122
      1123      1124      1125      1126      1255      1257      1480      1569
      1570      1571      1572      3852      3853      3854      3855      3856
      3857      3858      3859      3860      3861      3862      3863      3864
      3865      3866      3867     10632     10633     10637     10638     10641
     10642     10644     10645     10648     10649     10650     10652     10655
     10656     10659     10662     10663     10666     10669     10670     10672
     10675     10676     10678     10681     10682     10685     10688     10689
     10691     10694     10695     10697     10700     10701     10704     10707
     10708     10710     10713     10716     10719     10720     10722     10725
     10726     10729     10732     10733     10735     10738     10739     14075
     14076     14080     14081     14085     14086     14087     14092     14093
     14094     14099     14100     14101     14106     14107     14108     14112
     14113     14114     14117     14118     14119     14124     14125     14126
     14130     14131     14132     14137     14138     14139     14143     14144
     14145     14149     14150     14151     14155     14156     14157     14163
     14164     14165     14169     14170     14171     14176     14177     14178
! ... 4 like lines cut
cmsel,s,_FIXEDSU
d,all,all
nsel,all
nsel,all
/com,*********** Node Rotations ***********
nmod,119,,,,0.,0.,27.6923076923077
nmod,120,,,,0.,0.,27.6923076923077
nmod,121,,,,0.,0.,27.6923076923077
nmod,122,,,,0.,0.,27.6923076923077
nmod,165,,,,0.,0.,27.6923076923077
nmod,189,,,,0.,0.,27.6923076923077
nmod,190,,,,0.,0.,27.6923076923077
nmod,191,,,,0.,0.,27.6923076923077
nmod,192,,,,0.,0.,27.6923076923077
nmod,193,,,,0.,0.,27.6923076923077
nmod,194,,,,0.,0.,27.6923076923077
nmod,195,,,,0.,0.,27.6923076923077
nmod,196,,,,0.,0.,27.6923076923077
nmod,197,,,,0.,0.,27.6923076923077
nmod,198,,,,0.,0.,27.6923076923077
nmod,199,,,,0.,0.,27.6923076923077
nmod,200,,,,0.,0.,27.6923076923077
nmod,201,,,,0.,0.,27.6923076923077
nmod,202,,,,0.,0.,27.6923076923077
nmod,203,,,,0.,0.,27.6923076923077
! ... 2196 like lines cut
/com,*********** Define Pressure Using Surface Effect Elements ***********
et,5,154
eblock,10,,,852
(15i9)
    24540        5        5        5        0     2685     2691     2709     2709    23253    23311     2709    23256
    24541        5        5        5        0     2684     2711     2695     2695    23244    23340     2695    23243
    24542        5        5        5        0     2681     2757     2761     2761    23219    23646     2761    23220
    24543        5        5        5        0     2685     2755     2694     2694    23259    23337     2694    23254
    24544        5        5        5        0     2690     2726     2719     2719    23301    23493     2719    23300
    24545        5        5        5        0     2706     2743     2747     2747    23416    23600     2747    23417
    24546        5        5        5        0     2690     2761     2757     2757    23304    23646     2757    23303
    24547        5        5        5        0     2684     2713     2712     2712    23246    23456     2712    23245
    24548        5        5        5        0     2689     2739     2720     2720    23294    23502     2720    23293
    24549        5        5        5        0     2693     2745     2738     2738    23329    23581     2738    23327
    24550        5        5        5        0     2698     2746     2727     2727    23367    23538     2727    23366
    24551        5        5        5        0     2688     2764     2746     2746    23290    23612     2746    23289
    24552        5        5        5        0     2693     2752     2744     2744    23330    23604     2744    23328
    24553        5        5        5        0     2719     2726     2751     2751    23493    23531     2751    23494
    24554        5        5        5        0     2705     2737     2736     2736    23411    23573     2736    23410
    24555        5        5        5        0     2718     2738     2735     2735    23488    23568     2735    23487
    24556        5        5        5        0     2689     2720     2748     2748    23293    23503     2748    23296
    24557        5        5        5        0     2717     2738     2745     2745    23481    23581     2745    23482
    24558        5        5        5        0     2693     2718     2752     2752    23326    23489     2752    23330
    24559        5        5        5        0     2685     2694     2695     2695    23254    23335     2695    23255
! ... 833 like lines cut
esel,s,type,,5
esel,all

*DIM,_loadvari183,TABLE,2,1,1,TIME,
! Time values
_loadvari183(1,0,1) = 0.
_loadvari183(2,0,1) = 1.
! Load values
_loadvari183(1,1,1) = 0.
_loadvari183(2,1,1) = 2900.75574298382

/com,*********** Define Pressure Using Surface Effect Elements ***********
et,6,154
eblock,10,,,429
(15i9)
    25392        6        6        6        0      699     2897     2899     2899    11077    24093     2899    11079
    25393        6        6        6        0      688     2893      702      702    10983    11099      702    10978
    25394        6        6        6        0      683     1586      687      687    10947    10972      687    10945
    25395        6        6        6        0     2895     2896     2897     2897    24085    24089     2897    24086
    25396        6        6        6        0      685      686     2903     2903    10959    10968     2903    10961
    25397        6        6        6        0      698     2899     2901     2901    11070    24097     2901    11072
    25398        6        6        6        0      686     2902     2905     2905    10967    24102     2905    10969
    25399        6        6        6        0      690     2896     2894     2894    11005    24082     2894    11004
    25400        6        6        6        0      691     2898     2896     2896    11017    24090     2896    11016
    25401        6        6        6        0      698      699     2899     2899    11068    11079     2899    11070
    25402        6        6        6        0      684      685     2903     2903    10952    10961     2903    10956
    25403        6        6        6        0     2893     2894     2904     2904    24077    24083     2904    24078
    25404        6        6        6        0      688      689     2893     2893    10977    10993     2893    10983
    25405        6        6        6        0      696      697     2902     2902    11051    11066     2902    11056
    25406        6        6        6        0      687     1586      696      696    10972    11052      696    10971
    25407        6        6        6        0      695     2897      699      699    11049    11077      699    11043
    25408        6        6        6        0      689      690     2893     2893    10990    11003     2893    10993
    25409        6        6        6        0     2894     2896     2895     2895    24082    24085     2895    24081
    25410        6        6        6        0      684     2903      694      694    10956    11040      694    10953
    25411        6        6        6        0      686      687     2902     2902    10964    10973     2902    10967
! ... 410 like lines cut
esel,s,type,,6
esel,all

*DIM,_loadvari185,TABLE,2,1,1,TIME,
! Time values
_loadvari185(1,0,1) = 0.
_loadvari185(2,0,1) = 1.
! Load values
_loadvari185(1,1,1) = 0.
_loadvari185(2,1,1) = 2900.75574298382

/com,*********** Define Pressure Using Surface Effect Elements ***********
et,7,154
eblock,10,,,537
(15i9)
    25821        7        7        7        0     1618      943      564      564    12906    10185      564    10188
    25822        7        7        7        0      949     1619     1567     1567    12950    17129     1567    12949
    25823        7        7        7        0      942     1618     1557     1557    12898    17103     1557    12897
    25824        7        7        7        0      551      948      570      570    10109    10233      570    10108
    25825        7        7        7        0     1619      950      569      569    12957    10224      569    10227
    25826        7        7        7        0      950     1620     1565     1565    12958    17124     1565    12956
    25827        7        7        7        0     1620      951      568      568    12963    10216      568    10219
    25828        7        7        7        0      951     1621     1563     1563    12964    17120     1563    12962
    25829        7        7        7        0     1621      952      567      567    12969    10206      567    10209
    25830        7        7        7        0      952     1622     1561     1561    12970    17115     1561    12968
    25831        7        7        7        0     1622      953      566      566    12975    10201      566    10204
    25832        7        7        7        0      953     1623     1559     1559    12976    17108     1559    12974
    25833        7        7        7        0     1623      942      565      565    12899    10193      565    10196
    25834        7        7        7        0      564     1557     1618     1618    10186    17103     1618    10188
    25835        7        7        7        0     1567      570      949      949    10235    10234      949    12949
    25836        7        7        7        0      565     1559     1623     1623    10195    17108     1623    10196
    25837        7        7        7        0      569     1567     1619     1619    10226    17129     1619    10227
    25838        7        7        7        0     1611      564      943      943    10187    10185      943    12905
    25839        7        7        7        0     1559      566      953      953    10202    10201      953    12974
    25840        7        7        7        0     1565      569      950      950    10225    10224      950    12956
! ... 518 like lines cut
esel,s,type,,7
esel,all

*DIM,_loadvari187,TABLE,2,1,1,TIME,
! Time values
_loadvari187(1,0,1) = 0.
_loadvari187(2,0,1) = 1.
! Load values
_loadvari187(1,1,1) = 0.
_loadvari187(2,1,1) = 2900.75574298382

esel,all
/com,*********** Define Rotational Velocity ***********
cglo,3.27612167753735e-016,5.4199998475843,3.27612167753735e-016

*DIM,_loadvari212x,TABLE,2,1,1,TIME,
! Time values
_loadvari212x(1,0,1) = 0.
_loadvari212x(2,0,1) = 1.
! Load values
_loadvari212x(1,1,1) = 0.
_loadvari212x(2,1,1) = 0.


*DIM,_loadvari212y,TABLE,2,1,1,TIME,
! Time values
_loadvari212y(1,0,1) = 0.
_loadvari212y(2,0,1) = 1.
! Load values
_loadvari212y(1,1,1) = 0.
_loadvari212y(2,1,1) = 3000.


*DIM,_loadvari212z,TABLE,2,1,1,TIME,
! Time values
_loadvari212z(1,0,1) = 0.
_loadvari212z(2,0,1) = 1.
! Load values
_loadvari212z(1,1,1) = 0.
_loadvari212z(2,1,1) = 0.

/com,*********** Create Periodic/Cyclic Symmetry ***********
CYCOPT,USRROT,1
CYCOPT,STATUS
*DIM,_CYCLICMAP,ARRAY,2,2255
*SET,_CYCLICMAP(1,1),1,267
*SET,_CYCLICMAP(1,2),2,245
*SET,_CYCLICMAP(1,3),3,270
*SET,_CYCLICMAP(1,4),4,269
*SET,_CYCLICMAP(1,5),5,268
*SET,_CYCLICMAP(1,6),6,221
*SET,_CYCLICMAP(1,7),7,165
*SET,_CYCLICMAP(1,8),8,189
*SET,_CYCLICMAP(1,9),9,204
*SET,_CYCLICMAP(1,10),10,203
*SET,_CYCLICMAP(1,11),11,202
*SET,_CYCLICMAP(1,12),12,201
*SET,_CYCLICMAP(1,13),13,200
*SET,_CYCLICMAP(1,14),14,199
*SET,_CYCLICMAP(1,15),15,198
*SET,_CYCLICMAP(1,16),16,197
*SET,_CYCLICMAP(1,17),17,196
*SET,_CYCLICMAP(1,18),18,195
*SET,_CYCLICMAP(1,19),19,194
*SET,_CYCLICMAP(1,20),20,193
! ... 2235 like lines cut
CYCLIC,13,,12,,,_CYCLICMAP
/gst,on,on
fini
*get,_numnode,node,0,count
*get,_numelem,elem,0,count
*get, _MAXELEMNUM, elem, 0, NUM, MAX
*get, _MAXNODENUM, node, 0, NUM, MAX
*get, _MAXELEMTYPE, etyp, 0, NUM, MAX
*get, _MAXREALCONST, real, 0, NUM, MAX
/go
/wb,load,end               !  done creating loads
/com,--- Number of total nodes = %_numnode%
/com,--- Number of contact elements = 2954
/com,--- Number of spring elements = 0
/com,--- Number of bearing elements = 0
/com,--- Number of solid elements = 23403
/com,--- Number of total elements = %_numelem%
*get,_wallbsol,active,,time,wall
/com,****************************************************************************
/com,*************************    SOLUTION       ********************************
/com,****************************************************************************
/solu
antype,0                   ! static analysis
neqit,1,force              ! Force 1 eq iteration since only nonlinearity is bonded/no sep contact
pred,off
eqsl,pcg,1e-8,,,,,,1
cntr,print,1               ! print out contact info and also make no initial contact an error
nldiag,cont,iter           ! print out contact info each equilibrium iteration
resc,linear,last           ! Turn on restart files due to future eigen analysis intent
/com,****************************************************
/com,******************* SOLVE FOR LS 1 ****************
esel,s,type,,5
nsle
sf,all,pres,%_loadvari183%
esel,s,type,,6
nsle
sf,all,pres,%_loadvari185%
esel,s,type,,7
nsle
sf,all,pres,%_loadvari187%
nsel,all
esel,all
cgom,%_loadvari212x%,%_loadvari212y%,%_loadvari212z%
esel,all
/nopr
/gopr
nsub,1,1,1
time,1.
outres,erase
outres,all,none
outres,nsol,all
outres,rsol,all
outres,nload,all
outres,strs,all
outres,epel,all
outres,eppl,all
stabilize,off                   ! Stabilization turned OFF by user
! *********** WB SOLVE COMMAND ***********
! check interactive state
*get,ANSINTER_,active,,int
/com, PyMAPDL: Simulation Finished.