/batch
/config,noeldb,1     ! force off writing results to database
*get,_wallstrt,active,,time,wall
! ANSYS input file written by Workbench version 17.0 RELEASE
! File used for geometry attach: C:\Users\aprietop\Documents\2024\DAIHATSU TERIOS 2006-2018 TRAS\MODELADO\RESORTE DAIHATSU TERIOS II TRAS.stp
/title,DAIHATSU TERIOS 2006-2018 TRAS--Static Structural (B5)
*DIM,_wb_ProjectScratch_dir,string,248
_wb_ProjectScratch_dir(1) = 'C:\Users\aprietop\Documents\2024\DAIHATSU TERIOS 2006-2018 TRAS\ANALISIS ANSYS\_ProjectScratch\Scr90B9\'
*DIM,_wb_SolverFiles_dir,string,248
_wb_SolverFiles_dir(1) = 'C:\Users\aprietop\Documents\2024\DAIHATSU TERIOS 2006-2018 TRAS\ANALISIS ANSYS\DAIHATSU TERIOS 2006-2018 TRAS_files\dp0\SYS\MECH\'
*DIM,_wb_userfiles_dir,string,248
_wb_userfiles_dir(1) = 'C:\Users\aprietop\Documents\2024\DAIHATSU TERIOS 2006-2018 TRAS\ANALISIS ANSYS\DAIHATSU TERIOS 2006-2018 TRAS_files\user_files\'
/com,--- Data in consistent NMM units. See Solving Units in the help system for more information.
/units,MPA
/nopr
/wb,file,start              !  signify a WB generated input file
/prep7
! Turn off shape checking because checks already performed inside WB mesher.
! See help system for more information.
SHPP,OFF,,NOWARN
/nolist
etcon,set             ! allow ANSYS to choose best KEYOP's for 180x elements
/com,*********** Nodes for the whole assembly ***********
nblock,3
(1i9,3e20.9e3)
        1   -1.185044089E+001   -2.257912865E+001    2.977656340E+002
        2   -2.098608858E+001   -1.448565104E+001    2.977656340E+002
        3   -2.531407629E+001   -3.073685347E+000    2.977656340E+002
        4   -2.384291419E+001    9.042424620E+000    2.977656340E+002
        5   -1.690962779E+001    1.908702408E+001    2.977656340E+002
        6   -6.102549439E+000    2.475901634E+001    2.977656340E+002
        7    6.102549439E+000    2.475901634E+001    2.977656340E+002
        8    1.690962779E+001    1.908702408E+001    2.977656340E+002
        9    2.384291419E+001    9.042424620E+000    2.977656340E+002
       10    2.531407629E+001   -3.073685347E+000    2.977656340E+002
       11    2.098608858E+001   -1.448565104E+001    2.977656340E+002
       12    1.185044089E+001   -2.257912865E+001    2.977656340E+002
       13   -2.033217887E-015   -2.550000000E+001    2.977656340E+002
       14    1.125000000E+001   -1.948557159E+001    2.947656340E+002
       15    1.948557159E+001   -1.125000000E+001    2.947656340E+002
       16    2.250000000E+001   -1.373896443E-014    2.947656340E+002
       17    1.948557159E+001    1.125000000E+001    2.947656340E+002
       18    1.125000000E+001    1.948557159E+001    2.947656340E+002
       19    8.316576052E-015    2.250000000E+001    2.947656340E+002
       20   -1.125000000E+001    1.948557159E+001    2.947656340E+002
! ... 11529 like lines cut
/wb,elem,start            !  set before creation of elements
/com,*********** Elements for Body 1 "COPELA INFERIOR" ***********
/com,*********** Send Body as a Rigid Body ***********
et,1,21
keyo,1,2,1             ! Moments of inertia in nodal coordinates
keyo,1,3,0         ! 3D Mass With Rotary Intertia
r,1,1.60536515571794e-003,1.60536515571794e-003,1.60536515571794e-003,2.04142480272468,3.95572228452516,2.04142456578933
local,11,0,-5.13459340413593e-015,-5.56392769780463e-015,7.22852023840872,58.5052130976914,-90.,-144.017460488243
nrot,796
csys,0
mat,1
real,1
type,1
en,242,796
/com,*********** Elements for Body 2 "COPELA SUPERIOR" ***********
/com,*********** Send Body as a Rigid Body ***********
et,2,21
keyo,2,2,1             ! Moments of inertia in nodal coordinates
keyo,2,3,0         ! 3D Mass With Rotary Intertia
r,2,1.56685621982858e-003,1.56685621982858e-003,1.56685621982858e-003,2.02110860305092,3.93016473876013,2.02110836611626
local,11,0,7.02054637989773e-015,-3.32612627123886e-015,317.847950314917,-35.9825395117566,90.,35.9825395117566
nrot,414
csys,0
mat,2
real,2
type,2
en,126,414
/com,*********** Elements for Body 3 "RESORTE HEL DAIHATSU TERIOS II TRAS" ***********
et,3,186
keyo,3,2,1          ! set full integration on SOLID186
eblock,19,solid,,1730
(19i9)
        3        3        3        3        0        0        0        0       20        0      243     1153     1154     1155     1156     1314     1315     1316     1317
     5675     5679     5682     5676     6048     6050     6051     6049     5678     5681     5684     5687
        3        3        3        3        0        0        0        0       20        0      244     1153     1156     1155     1154     1160     1163     1162     1161
     5676     5682     5679     5675     5698     5702     5700     5697     5677     5686     5683     5680
        3        3        3        3        0        0        0        0       20        0      245     1160     1163     1162     1161     1167     1170     1169     1168
     5698     5702     5700     5697     5714     5718     5716     5713     5699     5705     5703     5701
        3        3        3        3        0        0        0        0       20        0      246     1167     1170     1169     1168     1174     1177     1176     1175
     5714     5718     5716     5713     5730     5734     5732     5729     5715     5721     5719     5717
        3        3        3        3        0        0        0        0       20        0      247     1174     1177     1176     1175     1181     1184     1183     1182
     5730     5734     5732     5729     5746     5750     5748     5745     5731     5737     5735     5733
        3        3        3        3        0        0        0        0       20        0      248     1181     1184     1183     1182     1188     1191     1190     1189
     5746     5750     5748     5745     5762     5766     5764     5761     5747     5753     5751     5749
        3        3        3        3        0        0        0        0       20        0      249     1188     1191     1190     1189     1195     1198     1197     1196
     5762     5766     5764     5761     5778     5782     5780     5777     5763     5769     5767     5765
        3        3        3        3        0        0        0        0       20        0      250     1195     1198     1197     1196     1202     1205     1204     1203
     5778     5782     5780     5777     5794     5798     5796     5793     5779     5785     5783     5781
        3        3        3        3        0        0        0        0       20        0      251     1202     1205     1204     1203     1209     1212     1211     1210
     5794     5798     5796     5793     5810     5814     5812     5809     5795     5801     5799     5797
        3        3        3        3        0        0        0        0       20        0      252     1209     1212     1211     1210     1216     1219     1218     1217
     5810     5814     5812     5809     5826     5830     5828     5825     5811     5817     5815     5813
! ... 3441 like lines cut
!Material Id = {F8CC27F6-4DA0-4534-855E-1F4081D7804B}
/wb,elem,end               !  done creating elements
/com,*********** Send User Defined Coordinate System(s) ***********
local,12,0,2.72683397023509e-016,3.68883294627643e-015,2.23517418115882e-007,-180.,2.43661672115028e-015,180.
local,13,0,-1.6648890957689e-015,3.30302725379864e-015,324.765633765238,180.,-7.01670939542413e-015,90.
csys,0
toffst,273.15,  ! Temperature offset from absolute zero
/com,*********** Set Reference Temperature ***********
tref,22.
/wb,mat,start              !  starting to send materials
/com,*********** Send Materials ***********
MP,DENS,1,7.85e-09,	! tonne mm^-3
MP,ALPX,1,1.2e-05,	! C^-1
MP,C,1,434000000,	! mm^2 s^-2 C^-1
MP,KXX,1,60.5,	! tonne mm s^-3 C^-1
MP,RSVX,1,0.00017,	! ohm mm
MP,EX,1,200000,	! tonne s^-2 mm^-1
MP,NUXY,1,0.3,
MP,MURX,1,10000,

MP,DENS,2,7.85e-09,	! tonne mm^-3
MP,ALPX,2,1.2e-05,	! C^-1
MP,C,2,434000000,	! mm^2 s^-2 C^-1
MP,KXX,2,60.5,	! tonne mm s^-3 C^-1
MP,RSVX,2,0.00017,	! ohm mm
MP,EX,2,200000,	! tonne s^-2 mm^-1
MP,NUXY,2,0.3,
MP,MURX,2,10000,

Mean Stress = 'UF01' ! Mean Stress
MP,DENS,3,7.85e-09,	! tonne mm^-3
MP,ALPX,3,1.2e-05,	! C^-1
MP,C,3,434000000,	! mm^2 s^-2 C^-1
MP,KXX,3,60.5,	! tonne mm s^-3 C^-1
MP,RSVX,3,0.00017,	! ohm mm
MP,EX,3,210000,	! tonne s^-2 mm^-1
MP,NUXY,3,0.3125,
MP,MURX,3,10000,

/wb,mat,end                !  done sending materials
!************************* Model Summary ********************
!COPELA INFERIOR,	Structural Steel,	matid,	1
!COPELA SUPERIOR,	Structural Steel,	matid,	2
!RESORTE HEL DAIHATSU TERIOS II TRAS,	SAE 9254 NL 50 HRC SHOT PEENING LINEAR,	matid,	3
!************************* End Model Summary ********************
! get the diagonal of the bounding box. Needed later for other things
*get,_xmin,node,,mnloc,x
*get,_ymin,node,,mnloc,y
*get,_zmin,node,,mnloc,z
*get,_xmax,node,,mxloc,x
*get,_ymax,node,,mxloc,y
*get,_zmax,node,,mxloc,z
_ASMDIAG=(_xmax-_xmin)*(_xmax-_xmin)+(_ymax-_ymin)*(_ymax-_ymin)+(_zmax-_zmin)*(_zmax-_zmin)
_ASMDIAG=SQRT(_ASMDIAG)
/wb,contact,start          !  starting to send contact
/com,*********** Create Contact "Frictional - RESORTE HEL DAIHATSU TERIOS II TRAS To COPELA SUPERIOR" ***********
! ********* Create Contact to Connect To Rigid Body Mass Node *********** 
*set,tid,4
*set,cid,4
et,tid,170
keyo,tid,2,1           ! Set MPC target element and not fix pilot
keyo,tid,4,0           ! Create CE's for all DOFs
type,tid
mat ,cid
real,cid
tshape,pilo
en,1979,414
tshape
! ********* End of Create Contact to Connect To Rigid Body Mass Node *********** 
! ******--- Create Insulation Layer on Rigid Body for Surface BC's ---******** 
eblock,10,,,125
(15i9)
     1980        4        4        4        0       60      105       57       57      286      278       57      276
     1981        4        4        4        0       62       41       40       64      231      227      228      290
     1982        4        4        4        0       40       41      112       66      227      233      301      229
     1983        4        4        4        0       44       43      102       39      237      239      225      224
     1984        4        4        4        0      108       83       44       39      340      242      224      226
     1985        4        4        4        0      108       39       42       84      226      223      235      343
     1986        4        4        4        0      102       59       42       39      282      234      223      225
     1987        4        4        4        0       64      105       60       62      295      286      284      290
     1988        4        4        4        0      105       64      103      101      295      294      373      374
     1989        4        4        4        0       44       83       82       81      242      338      335      241
     1990        4        4        4        0       84       42       86       85      235      236      345      342
     1991        4        4        4        0       42       59      106       86      234      283      347      236
     1992        4        4        4        0       43       97       32       33      238      211      210      213
     1993        4        4        4        0      102       43       33       34      239      213      212      215
     1994        4        4        4        0       43       44       46       97      237      240      246      238
     1995        4        4        4        0       94      103       64       40      366      294      228      230
     1996        4        4        4        0       68       94       40       66      306      230      229      299
     1997        4        4        4        0       59      102       96       61      282      368      289      281
     1998        4        4        4        0       96       95       67       65      367      303      296      298
     1999        4        4        4        0       96       65       63       61      298      292      287      289
! ... 106 like lines cut
! ******--- End Create Insulation Layer on Rigid Body for Surface BC's ---******** 
/com,            Real Constant Set For Above Contact Is 6 & 5 
*set,tid,6
*set,cid,5
r,tid
r,cid
et,tid,170
et,cid,174
eblock,10,,,856
(15i9)
     2105        5        5        5        0     3570     3601     3763     3608    10843    10877    10892    10845
     2106        5        5        5        0     3692     3784     3785     3762    11102    11266    11242    11101
     2107        5        5        5        0     3763     3764     3612     3608    11245    10902    10891    10892
     2108        5        5        5        0     3764     3765     3616     3612    11246    10912    10901    10902
     2109        5        5        5        0     3765     3766     3620     3616    11247    10922    10911    10912
     2110        5        5        5        0     3766     3767     3624     3620    11248    10932    10921    10922
     2111        5        5        5        0     3767     3768     3628     3624    11249    10942    10931    10932
     2112        5        5        5        0     3768     3769     3632     3628    11250    10952    10941    10942
     2113        5        5        5        0     3769     3770     3636     3632    11251    10962    10951    10952
     2114        5        5        5        0     3770     3771     3640     3636    11252    10972    10961    10962
     2115        5        5        5        0     3771     3772     3644     3640    11253    10982    10971    10972
     2116        5        5        5        0     3772     3773     3648     3644    11254    10992    10981    10982
     2117        5        5        5        0     3773     3774     3652     3648    11255    11002    10991    10992
     2118        5        5        5        0     3774     3775     3656     3652    11256    11012    11001    11002
     2119        5        5        5        0     3775     3776     3660     3656    11257    11022    11011    11012
     2120        5        5        5        0     3776     3777     3664     3660    11258    11032    11021    11022
     2121        5        5        5        0     3777     3778     3668     3664    11259    11042    11031    11032
     2122        5        5        5        0     3778     3779     3672     3668    11260    11052    11041    11042
     2123        5        5        5        0     3779     3780     3676     3672    11261    11062    11051    11052
     2124        5        5        5        0     3780     3781     3680     3676    11262    11072    11061    11062
! ... 837 like lines cut
eblock,10,,,125
(15i9)
     2961        6        5        6        0       60      105       57       57      286      278       57      276
     2962        6        5        6        0       62       41       40       64      231      227      228      290
     2963        6        5        6        0       40       41      112       66      227      233      301      229
     2964        6        5        6        0       44       43      102       39      237      239      225      224
     2965        6        5        6        0      108       83       44       39      340      242      224      226
     2966        6        5        6        0      108       39       42       84      226      223      235      343
     2967        6        5        6        0      102       59       42       39      282      234      223      225
     2968        6        5        6        0       64      105       60       62      295      286      284      290
     2969        6        5        6        0      105       64      103      101      295      294      373      374
     2970        6        5        6        0       44       83       82       81      242      338      335      241
     2971        6        5        6        0       84       42       86       85      235      236      345      342
     2972        6        5        6        0       42       59      106       86      234      283      347      236
     2973        6        5        6        0       43       97       32       33      238      211      210      213
     2974        6        5        6        0      102       43       33       34      239      213      212      215
     2975        6        5        6        0       43       44       46       97      237      240      246      238
     2976        6        5        6        0       94      103       64       40      366      294      228      230
     2977        6        5        6        0       68       94       40       66      306      230      229      299
     2978        6        5        6        0       59      102       96       61      282      368      289      281
     2979        6        5        6        0       96       95       67       65      367      303      296      298
     2980        6        5        6        0       96       65       63       61      298      292      287      289
! ... 106 like lines cut
esel,s,type,,5
cm,_AllContacts,elem
! ******--- Create Pilot Element For Rigid Targets ---******** 
mat,5
real,5
type,6
tshape,pilo
en,3086,414
tshape
! ******--- End Create Pilot Element For Rigid Targets ---******** 
keyo,tid,2,1               ! Don't fix the pilot node since scoped to rigid body
keyo,cid,10,2              ! adjust contact stiffness each NR iteration
keyo,cid,6,2               ! Allow for aggressive changes to stiffness
keyo,cid,12,0              ! standard contact
mp,mu,cid,0.3	! unitless
keyo,cid,2,0               ! augmented Lagrange 
keyo,cid,4,0               ! on Gauss point
keyo,cid,9,1               ! ignore initial gaps/penetration
keyo,cid,5,1               ! auto CNOF adjustment to close geometric gap only
keyo,cid,7,0               ! No Prediction
rmod,cid,3,1.	! FKN
rmod,cid,5,0.	! ICONT
rmod,cid,6,0.	! PINB
rmod,cid,10,0.	! CNOF
rmod,cid,12,0.	! FKT
rmod,cid,36,52	! WB DSID
mp,ex,cid,210000.	! EX of underlying rigid body
/com,*********** Create Contact "Frictional - RESORTE HEL DAIHATSU TERIOS II TRAS To COPELA INFERIOR" ***********
! ********* Create Contact to Connect To Rigid Body Mass Node *********** 
*set,tid,7
*set,cid,7
et,tid,170
keyo,tid,2,1           ! Set MPC target element and not fix pilot
keyo,tid,4,0           ! Create CE's for all DOFs
type,tid
mat ,cid
real,cid
tshape,pilo
en,3087,796
tshape
! ********* End of Create Contact to Connect To Rigid Body Mass Node *********** 
! ******--- Create Insulation Layer on Rigid Body for Surface BC's ---******** 
eblock,10,,,115
(15i9)
     3088        7        7        7        0      423      464      422      422      577      573      422      572
     3089        7        7        7        0      427      468      426      426      587      585      426      583
     3090        7        7        7        0      470      475      465      415      688      681      550      551
     3091        7        7        7        0      415      437      436      470      549      612      613      551
     3092        7        7        7        0      415      427      438      437      548      586      615      549
     3093        7        7        7        0      465      468      427      415      680      587      548      550
     3094        7        7        7        0      418      461      466      416      560      670      554      552
     3095        7        7        7        0      416      453      452      418      553      649      559      552
     3096        7        7        7        0      416      466      454      453      554      654      651      553
     3097        7        7        7        0      435      434      433      429      608      606      592      593
     3098        7        7        7        0      458      472      435      429      662      610      593      594
     3099        7        7        7        0      448      447      446      420      638      636      564      565
     3100        7        7        7        0      462      473      448      420      673      640      565      566
     3101        7        7        7        0      431      474      430      417      601      599      555      556
     3102        7        7        7        0      431      417      456      471      556      557      659      600
     3103        7        7        7        0      417      430      457      456      555      597      658      557
     3104        7        7        7        0      428      466      461      460      591      670      667      590
     3105        7        7        7        0      428      460      474      431      590      668      601      588
     3106        7        7        7        0      428      455      454      466      589      653      654      591
     3107        7        7        7        0      460      459      430      474      665      598      599      668
! ... 96 like lines cut
! ******--- End Create Insulation Layer on Rigid Body for Surface BC's ---******** 
/com,            Real Constant Set For Above Contact Is 9 & 8 
*set,tid,9
*set,cid,8
r,tid
r,cid
et,tid,170
et,cid,174
eblock,10,,,1312
(15i9)
     3203        8        8        8        0     1555     1561     1828     1592     6561     6575     6608     6562
     3204        8        8        8        0     1599     1592     1828     1829     6607     6608     7146     6624
     3205        8        8        8        0     1606     1599     1829     1830     6623     6624     7147     6640
     3206        8        8        8        0     1613     1606     1830     1831     6639     6640     7148     6656
     3207        8        8        8        0     1620     1613     1831     1832     6655     6656     7149     6672
     3208        8        8        8        0     1627     1620     1832     1833     6671     6672     7150     6688
     3209        8        8        8        0     1634     1627     1833     1834     6687     6688     7151     6704
     3210        8        8        8        0     1641     1634     1834     1835     6703     6704     7152     6720
     3211        8        8        8        0     1648     1641     1835     1836     6719     6720     7153     6736
     3212        8        8        8        0     1655     1648     1836     1837     6735     6736     7154     6752
     3213        8        8        8        0     1662     1655     1837     1838     6751     6752     7155     6768
     3214        8        8        8        0     1669     1662     1838     1839     6767     6768     7156     6784
     3215        8        8        8        0     1676     1669     1839     1840     6783     6784     7157     6800
     3216        8        8        8        0     1683     1676     1840     1841     6799     6800     7158     6816
     3217        8        8        8        0     1690     1683     1841     1842     6815     6816     7159     6832
     3218        8        8        8        0     1697     1690     1842     1843     6831     6832     7160     6848
     3219        8        8        8        0     1704     1697     1843     1844     6847     6848     7161     6864
     3220        8        8        8        0     1711     1704     1844     1845     6863     6864     7162     6880
     3221        8        8        8        0     1718     1711     1845     1846     6879     6880     7163     6896
     3222        8        8        8        0     1725     1718     1846     1847     6895     6896     7164     6912
! ... 1293 like lines cut
eblock,10,,,115
(15i9)
     4515        9        8        9        0      423      464      422      422      577      573      422      572
     4516        9        8        9        0      427      468      426      426      587      585      426      583
     4517        9        8        9        0      470      475      465      415      688      681      550      551
     4518        9        8        9        0      415      437      436      470      549      612      613      551
     4519        9        8        9        0      415      427      438      437      548      586      615      549
     4520        9        8        9        0      465      468      427      415      680      587      548      550
     4521        9        8        9        0      418      461      466      416      560      670      554      552
     4522        9        8        9        0      416      453      452      418      553      649      559      552
     4523        9        8        9        0      416      466      454      453      554      654      651      553
     4524        9        8        9        0      435      434      433      429      608      606      592      593
     4525        9        8        9        0      458      472      435      429      662      610      593      594
     4526        9        8        9        0      448      447      446      420      638      636      564      565
     4527        9        8        9        0      462      473      448      420      673      640      565      566
     4528        9        8        9        0      431      474      430      417      601      599      555      556
     4529        9        8        9        0      431      417      456      471      556      557      659      600
     4530        9        8        9        0      417      430      457      456      555      597      658      557
     4531        9        8        9        0      428      466      461      460      591      670      667      590
     4532        9        8        9        0      428      460      474      431      590      668      601      588
     4533        9        8        9        0      428      455      454      466      589      653      654      591
     4534        9        8        9        0      460      459      430      474      665      598      599      668
! ... 96 like lines cut
esel,s,type,,8
cm,contactElems53,elem
cmsel,a,_AllContacts,elem
cm,_AllContacts,elem
cmsel,s,contactElems53,elem
cmdele,contactElems53
! ******--- Create Pilot Element For Rigid Targets ---******** 
mat,8
real,8
type,9
tshape,pilo
en,4630,796
tshape
! ******--- End Create Pilot Element For Rigid Targets ---******** 
keyo,tid,2,1               ! Don't fix the pilot node since scoped to rigid body
keyo,cid,10,2              ! adjust contact stiffness each NR iteration
keyo,cid,6,2               ! Allow for aggressive changes to stiffness
keyo,cid,12,0              ! standard contact
mp,mu,cid,0.3	! unitless
keyo,cid,2,0               ! augmented Lagrange 
keyo,cid,4,0               ! on Gauss point
keyo,cid,9,1               ! ignore initial gaps/penetration
keyo,cid,5,1               ! auto CNOF adjustment to close geometric gap only
keyo,cid,7,0               ! No Prediction
rmod,cid,3,1.	! FKN
rmod,cid,5,0.	! ICONT
rmod,cid,6,0.	! PINB
rmod,cid,10,0.	! CNOF
rmod,cid,12,0.	! FKT
rmod,cid,36,53	! WB DSID
mp,ex,cid,210000.	! EX of underlying rigid body
/com,*********** Create Contact "Frictional - RESORTE HEL DAIHATSU TERIOS II TRAS To RESORTE HEL DAIHATSU TERIOS II TRAS" ***********
/com,            Real Constant Set For Above Contact Is 11 & 10 
*set,tid,11
*set,cid,10
r,tid
r,cid
et,tid,170
et,cid,174
eblock,10,,,136
(15i9)
     4631       10       10       10        0     3762     3785     3904     3792    11242    11268    11283    11244
     4632       10       10       10        0     3852     3919     1144     1150    11432     5656     5655     5669
     4633       10       10       10        0     3904     3905     3796     3792    11530    11293    11282    11283
     4634       10       10       10        0     3905     3906     3800     3796    11531    11303    11292    11293
     4635       10       10       10        0     3906     3907     3804     3800    11532    11313    11302    11303
     4636       10       10       10        0     3907     3908     3808     3804    11533    11323    11312    11313
     4637       10       10       10        0     3908     3909     3812     3808    11534    11333    11322    11323
     4638       10       10       10        0     3909     3910     3816     3812    11535    11343    11332    11333
     4639       10       10       10        0     3910     3911     3820     3816    11536    11353    11342    11343
     4640       10       10       10        0     3911     3912     3824     3820    11537    11363    11352    11353
     4641       10       10       10        0     3912     3913     3828     3824    11538    11373    11362    11363
     4642       10       10       10        0     3913     3914     3832     3828    11539    11383    11372    11373
     4643       10       10       10        0     3914     3915     3836     3832    11540    11393    11382    11383
     4644       10       10       10        0     3915     3916     3840     3836    11541    11403    11392    11393
     4645       10       10       10        0     3916     3917     3844     3840    11542    11413    11402    11403
     4646       10       10       10        0     3917     3918     3848     3844    11543    11423    11412    11413
     4647       10       10       10        0     3918     3919     3852     3848    11544    11432    11422    11423
     4648       10       10       10        0     3792     3793     3791     3762    11281    11280    11243    11244
     4649       10       10       10        0     3793     3794     3790     3791    11284    11279    11278    11280
     4650       10       10       10        0     3794     3795     3789     3790    11287    11277    11276    11279
! ... 117 like lines cut
eblock,10,,,248
(15i9)
     4767       11       10       11        0     3317     3353     3571     3360    10311    10350    10365    10313
     4768       11       10       11        0     3476     3600     3601     3570    10655    10875    10843    10654
     4769       11       10       11        0     3571     3572     3364     3360    10846    10375    10364    10365
     4770       11       10       11        0     3572     3573     3368     3364    10847    10385    10374    10375
     4771       11       10       11        0     3573     3574     3372     3368    10848    10395    10384    10385
     4772       11       10       11        0     3574     3575     3376     3372    10849    10405    10394    10395
     4773       11       10       11        0     3575     3576     3380     3376    10850    10415    10404    10405
     4774       11       10       11        0     3576     3577     3384     3380    10851    10425    10414    10415
     4775       11       10       11        0     3577     3578     3388     3384    10852    10435    10424    10425
     4776       11       10       11        0     3578     3579     3392     3388    10853    10445    10434    10435
     4777       11       10       11        0     3579     3580     3396     3392    10854    10455    10444    10445
     4778       11       10       11        0     3580     3581     3400     3396    10855    10465    10454    10455
     4779       11       10       11        0     3581     3582     3404     3400    10856    10475    10464    10465
     4780       11       10       11        0     3582     3583     3408     3404    10857    10485    10474    10475
     4781       11       10       11        0     3583     3584     3412     3408    10858    10495    10484    10485
     4782       11       10       11        0     3584     3585     3416     3412    10859    10505    10494    10495
     4783       11       10       11        0     3585     3586     3420     3416    10860    10515    10504    10505
     4784       11       10       11        0     3586     3587     3424     3420    10861    10525    10514    10515
     4785       11       10       11        0     3587     3588     3428     3424    10862    10535    10524    10525
     4786       11       10       11        0     3588     3589     3432     3428    10863    10545    10534    10535
! ... 229 like lines cut
esel,s,type,,10
cm,contactElems54,elem
cmsel,a,_AllContacts,elem
cm,_AllContacts,elem
cmsel,s,contactElems54,elem
cmdele,contactElems54
keyo,cid,10,2              ! adjust contact stiffness each NR iteration
keyo,cid,6,2               ! Allow for aggressive changes to stiffness
keyo,cid,12,0              ! standard contact
mp,mu,cid,0.15	! unitless
keyo,cid,2,0               ! augmented Lagrange 
keyo,cid,4,0               ! on Gauss point
keyo,cid,9,2               ! use real geometry with ramped effects
keyo,cid,7,0               ! No Prediction
rmod,cid,3,1.	! FKN
rmod,cid,5,0.	! ICONT
rmod,cid,6,0.	! PINB
rmod,cid,10,0.	! CNOF
rmod,cid,12,0.	! FKT
rmod,cid,36,54	! WB DSID
/com,*********** Create Contact "Frictional - RESORTE HEL DAIHATSU TERIOS II TRAS To RESORTE HEL DAIHATSU TERIOS II TRAS" ***********
/com,            Real Constant Set For Above Contact Is 13 & 12 
*set,tid,13
*set,cid,12
r,tid
r,cid
et,tid,170
et,cid,174
eblock,10,,,184
(15i9)
     5015       12       12       12        0     3570     3601     3763     3608    10843    10877    10892    10845
     5016       12       12       12        0     3692     3784     3785     3762    11102    11266    11242    11101
     5017       12       12       12        0     3763     3764     3612     3608    11245    10902    10891    10892
     5018       12       12       12        0     3764     3765     3616     3612    11246    10912    10901    10902
     5019       12       12       12        0     3765     3766     3620     3616    11247    10922    10911    10912
     5020       12       12       12        0     3766     3767     3624     3620    11248    10932    10921    10922
     5021       12       12       12        0     3767     3768     3628     3624    11249    10942    10931    10932
     5022       12       12       12        0     3768     3769     3632     3628    11250    10952    10941    10942
     5023       12       12       12        0     3769     3770     3636     3632    11251    10962    10951    10952
     5024       12       12       12        0     3770     3771     3640     3636    11252    10972    10961    10962
     5025       12       12       12        0     3771     3772     3644     3640    11253    10982    10971    10972
     5026       12       12       12        0     3772     3773     3648     3644    11254    10992    10981    10982
     5027       12       12       12        0     3773     3774     3652     3648    11255    11002    10991    10992
     5028       12       12       12        0     3774     3775     3656     3652    11256    11012    11001    11002
     5029       12       12       12        0     3775     3776     3660     3656    11257    11022    11011    11012
     5030       12       12       12        0     3776     3777     3664     3660    11258    11032    11021    11022
     5031       12       12       12        0     3777     3778     3668     3664    11259    11042    11031    11032
     5032       12       12       12        0     3778     3779     3672     3668    11260    11052    11041    11042
     5033       12       12       12        0     3779     3780     3676     3672    11261    11062    11051    11052
     5034       12       12       12        0     3780     3781     3680     3676    11262    11072    11061    11062
! ... 165 like lines cut
eblock,10,,,288
(15i9)
     5199       13       12       13        0     3028     3071     3318     3072     9699     9750     9753     9700
     5200       13       12       13        0     3208     3352     3353     3317    10093    10348    10311    10092
     5201       13       12       13        0     3318     3319     3076     3072    10314     9763     9752     9753
     5202       13       12       13        0     3319     3320     3080     3076    10315     9773     9762     9763
     5203       13       12       13        0     3320     3321     3084     3080    10316     9783     9772     9773
     5204       13       12       13        0     3321     3322     3088     3084    10317     9793     9782     9783
     5205       13       12       13        0     3322     3323     3092     3088    10318     9803     9792     9793
     5206       13       12       13        0     3323     3324     3096     3092    10319     9813     9802     9803
     5207       13       12       13        0     3324     3325     3100     3096    10320     9823     9812     9813
     5208       13       12       13        0     3325     3326     3104     3100    10321     9833     9822     9823
     5209       13       12       13        0     3326     3327     3108     3104    10322     9843     9832     9833
     5210       13       12       13        0     3327     3328     3112     3108    10323     9853     9842     9843
     5211       13       12       13        0     3328     3329     3116     3112    10324     9863     9852     9853
     5212       13       12       13        0     3329     3330     3120     3116    10325     9873     9862     9863
     5213       13       12       13        0     3330     3331     3124     3120    10326     9883     9872     9873
     5214       13       12       13        0     3331     3332     3128     3124    10327     9893     9882     9883
     5215       13       12       13        0     3332     3333     3132     3128    10328     9903     9892     9893
     5216       13       12       13        0     3333     3334     3136     3132    10329     9913     9902     9903
     5217       13       12       13        0     3334     3335     3140     3136    10330     9923     9912     9913
     5218       13       12       13        0     3335     3336     3144     3140    10331     9933     9922     9923
! ... 269 like lines cut
esel,s,type,,12
cm,contactElems55,elem
cmsel,a,_AllContacts,elem
cm,_AllContacts,elem
cmsel,s,contactElems55,elem
cmdele,contactElems55
keyo,cid,10,2              ! adjust contact stiffness each NR iteration
keyo,cid,6,2               ! Allow for aggressive changes to stiffness
keyo,cid,12,0              ! standard contact
mp,mu,cid,0.15	! unitless
keyo,cid,2,0               ! augmented Lagrange 
keyo,cid,4,0               ! on Gauss point
keyo,cid,9,2               ! use real geometry with ramped effects
keyo,cid,7,0               ! No Prediction
rmod,cid,3,1.	! FKN
rmod,cid,5,0.	! ICONT
rmod,cid,6,0.	! PINB
rmod,cid,10,0.	! CNOF
rmod,cid,12,0.	! FKT
rmod,cid,36,55	! WB DSID
/com,*********** Create Contact "Frictional - RESORTE HEL DAIHATSU TERIOS II TRAS To RESORTE HEL DAIHATSU TERIOS II TRAS" ***********
/com,            Real Constant Set For Above Contact Is 15 & 14 
*set,tid,15
*set,cid,14
r,tid
r,cid
et,tid,170
et,cid,174
eblock,10,,,248
(15i9)
     5487       14       14       14        0     3317     3353     3571     3360    10311    10350    10365    10313
     5488       14       14       14        0     3476     3600     3601     3570    10655    10875    10843    10654
     5489       14       14       14        0     3571     3572     3364     3360    10846    10375    10364    10365
     5490       14       14       14        0     3572     3573     3368     3364    10847    10385    10374    10375
     5491       14       14       14        0     3573     3574     3372     3368    10848    10395    10384    10385
     5492       14       14       14        0     3574     3575     3376     3372    10849    10405    10394    10395
     5493       14       14       14        0     3575     3576     3380     3376    10850    10415    10404    10405
     5494       14       14       14        0     3576     3577     3384     3380    10851    10425    10414    10415
     5495       14       14       14        0     3577     3578     3388     3384    10852    10435    10424    10425
     5496       14       14       14        0     3578     3579     3392     3388    10853    10445    10434    10435
     5497       14       14       14        0     3579     3580     3396     3392    10854    10455    10444    10445
     5498       14       14       14        0     3580     3581     3400     3396    10855    10465    10454    10455
     5499       14       14       14        0     3581     3582     3404     3400    10856    10475    10464    10465
     5500       14       14       14        0     3582     3583     3408     3404    10857    10485    10474    10475
     5501       14       14       14        0     3583     3584     3412     3408    10858    10495    10484    10485
     5502       14       14       14        0     3584     3585     3416     3412    10859    10505    10494    10495
     5503       14       14       14        0     3585     3586     3420     3416    10860    10515    10504    10505
     5504       14       14       14        0     3586     3587     3424     3420    10861    10525    10514    10515
     5505       14       14       14        0     3587     3588     3428     3424    10862    10535    10524    10525
     5506       14       14       14        0     3588     3589     3432     3428    10863    10545    10534    10535
! ... 229 like lines cut
eblock,10,,,296
(15i9)
     5735       15       14       15        0     2731     2775     3033     2776     9069     9121     9124     9070
     5736       15       14       15        0     2783     2776     3033     3034     9123     9124     9710     9140
     5737       15       14       15        0     2790     2783     3034     3035     9139     9140     9711     9156
     5738       15       14       15        0     2797     2790     3035     3036     9155     9156     9712     9172
     5739       15       14       15        0     2804     2797     3036     3037     9171     9172     9713     9188
     5740       15       14       15        0     2811     2804     3037     3038     9187     9188     9714     9204
     5741       15       14       15        0     2818     2811     3038     3039     9203     9204     9715     9220
     5742       15       14       15        0     2825     2818     3039     3040     9219     9220     9716     9236
     5743       15       14       15        0     2832     2825     3040     3041     9235     9236     9717     9252
     5744       15       14       15        0     2839     2832     3041     3042     9251     9252     9718     9268
     5745       15       14       15        0     2846     2839     3042     3043     9267     9268     9719     9284
     5746       15       14       15        0     2853     2846     3043     3044     9283     9284     9720     9300
     5747       15       14       15        0     2860     2853     3044     3045     9299     9300     9721     9316
     5748       15       14       15        0     2867     2860     3045     3046     9315     9316     9722     9332
     5749       15       14       15        0     2874     2867     3046     3047     9331     9332     9723     9348
     5750       15       14       15        0     2881     2874     3047     3048     9347     9348     9724     9364
     5751       15       14       15        0     2888     2881     3048     3049     9363     9364     9725     9380
     5752       15       14       15        0     2895     2888     3049     3050     9379     9380     9726     9396
     5753       15       14       15        0     2902     2895     3050     3051     9395     9396     9727     9412
     5754       15       14       15        0     2909     2902     3051     3052     9411     9412     9728     9428
! ... 277 like lines cut
esel,s,type,,14
cm,contactElems56,elem
cmsel,a,_AllContacts,elem
cm,_AllContacts,elem
cmsel,s,contactElems56,elem
cmdele,contactElems56
keyo,cid,10,2              ! adjust contact stiffness each NR iteration
keyo,cid,6,2               ! Allow for aggressive changes to stiffness
keyo,cid,12,0              ! standard contact
mp,mu,cid,0.15	! unitless
keyo,cid,2,0               ! augmented Lagrange 
keyo,cid,4,0               ! on Gauss point
keyo,cid,9,2               ! use real geometry with ramped effects
keyo,cid,7,0               ! No Prediction
rmod,cid,3,1.	! FKN
rmod,cid,5,0.	! ICONT
rmod,cid,6,0.	! PINB
rmod,cid,10,0.	! CNOF
rmod,cid,12,0.	! FKT
rmod,cid,36,56	! WB DSID
/com,*********** Create Contact "Frictional - RESORTE HEL DAIHATSU TERIOS II TRAS To RESORTE HEL DAIHATSU TERIOS II TRAS" ***********
/com,            Real Constant Set For Above Contact Is 17 & 16 
*set,tid,17
*set,cid,16
r,tid
r,cid
et,tid,170
et,cid,174
eblock,10,,,288
(15i9)
     6031       16       16       16        0     3028     3071     3318     3072     9699     9750     9753     9700
     6032       16       16       16        0     3208     3352     3353     3317    10093    10348    10311    10092
     6033       16       16       16        0     3318     3319     3076     3072    10314     9763     9752     9753
     6034       16       16       16        0     3319     3320     3080     3076    10315     9773     9762     9763
     6035       16       16       16        0     3320     3321     3084     3080    10316     9783     9772     9773
     6036       16       16       16        0     3321     3322     3088     3084    10317     9793     9782     9783
     6037       16       16       16        0     3322     3323     3092     3088    10318     9803     9792     9793
     6038       16       16       16        0     3323     3324     3096     3092    10319     9813     9802     9803
     6039       16       16       16        0     3324     3325     3100     3096    10320     9823     9812     9813
     6040       16       16       16        0     3325     3326     3104     3100    10321     9833     9822     9823
     6041       16       16       16        0     3326     3327     3108     3104    10322     9843     9832     9833
     6042       16       16       16        0     3327     3328     3112     3108    10323     9853     9842     9843
     6043       16       16       16        0     3328     3329     3116     3112    10324     9863     9852     9853
     6044       16       16       16        0     3329     3330     3120     3116    10325     9873     9862     9863
     6045       16       16       16        0     3330     3331     3124     3120    10326     9883     9872     9873
     6046       16       16       16        0     3331     3332     3128     3124    10327     9893     9882     9883
     6047       16       16       16        0     3332     3333     3132     3128    10328     9903     9892     9893
     6048       16       16       16        0     3333     3334     3136     3132    10329     9913     9902     9903
     6049       16       16       16        0     3334     3335     3140     3136    10330     9923     9912     9913
     6050       16       16       16        0     3335     3336     3144     3140    10331     9933     9922     9923
! ... 269 like lines cut
eblock,10,,,304
(15i9)
     6319       17       16       17        0     2427     2471     2736     2472     8423     8475     8478     8424
     6320       17       16       17        0     2479     2472     2736     2737     8477     8478     9080     8494
     6321       17       16       17        0     2486     2479     2737     2738     8493     8494     9081     8510
     6322       17       16       17        0     2493     2486     2738     2739     8509     8510     9082     8526
     6323       17       16       17        0     2500     2493     2739     2740     8525     8526     9083     8542
     6324       17       16       17        0     2507     2500     2740     2741     8541     8542     9084     8558
     6325       17       16       17        0     2514     2507     2741     2742     8557     8558     9085     8574
     6326       17       16       17        0     2521     2514     2742     2743     8573     8574     9086     8590
     6327       17       16       17        0     2528     2521     2743     2744     8589     8590     9087     8606
     6328       17       16       17        0     2535     2528     2744     2745     8605     8606     9088     8622
     6329       17       16       17        0     2542     2535     2745     2746     8621     8622     9089     8638
     6330       17       16       17        0     2549     2542     2746     2747     8637     8638     9090     8654
     6331       17       16       17        0     2556     2549     2747     2748     8653     8654     9091     8670
     6332       17       16       17        0     2563     2556     2748     2749     8669     8670     9092     8686
     6333       17       16       17        0     2570     2563     2749     2750     8685     8686     9093     8702
     6334       17       16       17        0     2577     2570     2750     2751     8701     8702     9094     8718
     6335       17       16       17        0     2584     2577     2751     2752     8717     8718     9095     8734
     6336       17       16       17        0     2591     2584     2752     2753     8733     8734     9096     8750
     6337       17       16       17        0     2598     2591     2753     2754     8749     8750     9097     8766
     6338       17       16       17        0     2605     2598     2754     2755     8765     8766     9098     8782
! ... 285 like lines cut
esel,s,type,,16
cm,contactElems57,elem
cmsel,a,_AllContacts,elem
cm,_AllContacts,elem
cmsel,s,contactElems57,elem
cmdele,contactElems57
keyo,cid,10,2              ! adjust contact stiffness each NR iteration
keyo,cid,6,2               ! Allow for aggressive changes to stiffness
keyo,cid,12,0              ! standard contact
mp,mu,cid,0.15	! unitless
keyo,cid,2,0               ! augmented Lagrange 
keyo,cid,4,0               ! on Gauss point
keyo,cid,9,2               ! use real geometry with ramped effects
keyo,cid,7,0               ! No Prediction
rmod,cid,3,1.	! FKN
rmod,cid,5,0.	! ICONT
rmod,cid,6,0.	! PINB
rmod,cid,10,0.	! CNOF
rmod,cid,12,0.	! FKT
rmod,cid,36,57	! WB DSID
/com,*********** Create Contact "Frictional - RESORTE HEL DAIHATSU TERIOS II TRAS To RESORTE HEL DAIHATSU TERIOS II TRAS" ***********
/com,            Real Constant Set For Above Contact Is 19 & 18 
*set,tid,19
*set,cid,18
r,tid
r,cid
et,tid,170
et,cid,174
eblock,10,,,296
(15i9)
     6623       18       18       18        0     2731     2775     3033     2776     9069     9121     9124     9070
     6624       18       18       18        0     2783     2776     3033     3034     9123     9124     9710     9140
     6625       18       18       18        0     2790     2783     3034     3035     9139     9140     9711     9156
     6626       18       18       18        0     2797     2790     3035     3036     9155     9156     9712     9172
     6627       18       18       18        0     2804     2797     3036     3037     9171     9172     9713     9188
     6628       18       18       18        0     2811     2804     3037     3038     9187     9188     9714     9204
     6629       18       18       18        0     2818     2811     3038     3039     9203     9204     9715     9220
     6630       18       18       18        0     2825     2818     3039     3040     9219     9220     9716     9236
     6631       18       18       18        0     2832     2825     3040     3041     9235     9236     9717     9252
     6632       18       18       18        0     2839     2832     3041     3042     9251     9252     9718     9268
     6633       18       18       18        0     2846     2839     3042     3043     9267     9268     9719     9284
     6634       18       18       18        0     2853     2846     3043     3044     9283     9284     9720     9300
     6635       18       18       18        0     2860     2853     3044     3045     9299     9300     9721     9316
     6636       18       18       18        0     2867     2860     3045     3046     9315     9316     9722     9332
     6637       18       18       18        0     2874     2867     3046     3047     9331     9332     9723     9348
     6638       18       18       18        0     2881     2874     3047     3048     9347     9348     9724     9364
     6639       18       18       18        0     2888     2881     3048     3049     9363     9364     9725     9380
     6640       18       18       18        0     2895     2888     3049     3050     9379     9380     9726     9396
     6641       18       18       18        0     2902     2895     3050     3051     9395     9396     9727     9412
     6642       18       18       18        0     2909     2902     3051     3052     9411     9412     9728     9428
! ... 277 like lines cut
eblock,10,,,304
(15i9)
     6919       19       18       19        0     2123     2167     2432     2168     7777     7829     7832     7778
     6920       19       18       19        0     2175     2168     2432     2433     7831     7832     8434     7848
     6921       19       18       19        0     2182     2175     2433     2434     7847     7848     8435     7864
     6922       19       18       19        0     2189     2182     2434     2435     7863     7864     8436     7880
     6923       19       18       19        0     2196     2189     2435     2436     7879     7880     8437     7896
     6924       19       18       19        0     2203     2196     2436     2437     7895     7896     8438     7912
     6925       19       18       19        0     2210     2203     2437     2438     7911     7912     8439     7928
     6926       19       18       19        0     2217     2210     2438     2439     7927     7928     8440     7944
     6927       19       18       19        0     2224     2217     2439     2440     7943     7944     8441     7960
     6928       19       18       19        0     2231     2224     2440     2441     7959     7960     8442     7976
     6929       19       18       19        0     2238     2231     2441     2442     7975     7976     8443     7992
     6930       19       18       19        0     2245     2238     2442     2443     7991     7992     8444     8008
     6931       19       18       19        0     2252     2245     2443     2444     8007     8008     8445     8024
     6932       19       18       19        0     2259     2252     2444     2445     8023     8024     8446     8040
     6933       19       18       19        0     2266     2259     2445     2446     8039     8040     8447     8056
     6934       19       18       19        0     2273     2266     2446     2447     8055     8056     8448     8072
     6935       19       18       19        0     2280     2273     2447     2448     8071     8072     8449     8088
     6936       19       18       19        0     2287     2280     2448     2449     8087     8088     8450     8104
     6937       19       18       19        0     2294     2287     2449     2450     8103     8104     8451     8120
     6938       19       18       19        0     2301     2294     2450     2451     8119     8120     8452     8136
! ... 285 like lines cut
esel,s,type,,18
cm,contactElems58,elem
cmsel,a,_AllContacts,elem
cm,_AllContacts,elem
cmsel,s,contactElems58,elem
cmdele,contactElems58
keyo,cid,10,2              ! adjust contact stiffness each NR iteration
keyo,cid,6,2               ! Allow for aggressive changes to stiffness
keyo,cid,12,0              ! standard contact
mp,mu,cid,0.15	! unitless
keyo,cid,2,0               ! augmented Lagrange 
keyo,cid,4,0               ! on Gauss point
keyo,cid,9,2               ! use real geometry with ramped effects
keyo,cid,7,0               ! No Prediction
rmod,cid,3,1.	! FKN
rmod,cid,5,0.	! ICONT
rmod,cid,6,0.	! PINB
rmod,cid,10,0.	! CNOF
rmod,cid,12,0.	! FKT
rmod,cid,36,58	! WB DSID
/com,*********** Create Contact "Frictional - RESORTE HEL DAIHATSU TERIOS II TRAS To RESORTE HEL DAIHATSU TERIOS II TRAS" ***********
/com,            Real Constant Set For Above Contact Is 21 & 20 
*set,tid,21
*set,cid,20
r,tid
r,cid
et,tid,170
et,cid,174
eblock,10,,,304
(15i9)
     7223       20       20       20        0     2427     2471     2736     2472     8423     8475     8478     8424
     7224       20       20       20        0     2479     2472     2736     2737     8477     8478     9080     8494
     7225       20       20       20        0     2486     2479     2737     2738     8493     8494     9081     8510
     7226       20       20       20        0     2493     2486     2738     2739     8509     8510     9082     8526
     7227       20       20       20        0     2500     2493     2739     2740     8525     8526     9083     8542
     7228       20       20       20        0     2507     2500     2740     2741     8541     8542     9084     8558
     7229       20       20       20        0     2514     2507     2741     2742     8557     8558     9085     8574
     7230       20       20       20        0     2521     2514     2742     2743     8573     8574     9086     8590
     7231       20       20       20        0     2528     2521     2743     2744     8589     8590     9087     8606
     7232       20       20       20        0     2535     2528     2744     2745     8605     8606     9088     8622
     7233       20       20       20        0     2542     2535     2745     2746     8621     8622     9089     8638
     7234       20       20       20        0     2549     2542     2746     2747     8637     8638     9090     8654
     7235       20       20       20        0     2556     2549     2747     2748     8653     8654     9091     8670
     7236       20       20       20        0     2563     2556     2748     2749     8669     8670     9092     8686
     7237       20       20       20        0     2570     2563     2749     2750     8685     8686     9093     8702
     7238       20       20       20        0     2577     2570     2750     2751     8701     8702     9094     8718
     7239       20       20       20        0     2584     2577     2751     2752     8717     8718     9095     8734
     7240       20       20       20        0     2591     2584     2752     2753     8733     8734     9096     8750
     7241       20       20       20        0     2598     2591     2753     2754     8749     8750     9097     8766
     7242       20       20       20        0     2605     2598     2754     2755     8765     8766     9098     8782
! ... 285 like lines cut
eblock,10,,,304
(15i9)
     7527       21       20       21        0     1823     1863     2128     1864     7135     7183     7186     7136
     7528       21       20       21        0     1871     1864     2128     2129     7185     7186     7788     7202
     7529       21       20       21        0     1878     1871     2129     2130     7201     7202     7789     7218
     7530       21       20       21        0     1885     1878     2130     2131     7217     7218     7790     7234
     7531       21       20       21        0     1892     1885     2131     2132     7233     7234     7791     7250
     7532       21       20       21        0     1899     1892     2132     2133     7249     7250     7792     7266
     7533       21       20       21        0     1906     1899     2133     2134     7265     7266     7793     7282
     7534       21       20       21        0     1913     1906     2134     2135     7281     7282     7794     7298
     7535       21       20       21        0     1920     1913     2135     2136     7297     7298     7795     7314
     7536       21       20       21        0     1927     1920     2136     2137     7313     7314     7796     7330
     7537       21       20       21        0     1934     1927     2137     2138     7329     7330     7797     7346
     7538       21       20       21        0     1941     1934     2138     2139     7345     7346     7798     7362
     7539       21       20       21        0     1948     1941     2139     2140     7361     7362     7799     7378
     7540       21       20       21        0     1955     1948     2140     2141     7377     7378     7800     7394
     7541       21       20       21        0     1962     1955     2141     2142     7393     7394     7801     7410
     7542       21       20       21        0     1969     1962     2142     2143     7409     7410     7802     7426
     7543       21       20       21        0     1976     1969     2143     2144     7425     7426     7803     7442
     7544       21       20       21        0     1983     1976     2144     2145     7441     7442     7804     7458
     7545       21       20       21        0     1990     1983     2145     2146     7457     7458     7805     7474
     7546       21       20       21        0     1997     1990     2146     2147     7473     7474     7806     7490
! ... 285 like lines cut
esel,s,type,,20
cm,contactElems59,elem
cmsel,a,_AllContacts,elem
cm,_AllContacts,elem
cmsel,s,contactElems59,elem
cmdele,contactElems59
keyo,cid,10,2              ! adjust contact stiffness each NR iteration
keyo,cid,6,2               ! Allow for aggressive changes to stiffness
keyo,cid,12,0              ! standard contact
mp,mu,cid,0.15	! unitless
keyo,cid,2,0               ! augmented Lagrange 
keyo,cid,4,0               ! on Gauss point
keyo,cid,9,2               ! use real geometry with ramped effects
keyo,cid,7,0               ! No Prediction
rmod,cid,3,1.	! FKN
rmod,cid,5,0.	! ICONT
rmod,cid,6,0.	! PINB
rmod,cid,10,0.	! CNOF
rmod,cid,12,0.	! FKT
rmod,cid,36,59	! WB DSID
/com,*********** Create Contact "Frictional - RESORTE HEL DAIHATSU TERIOS II TRAS To RESORTE HEL DAIHATSU TERIOS II TRAS" ***********
/com,            Real Constant Set For Above Contact Is 23 & 22 
*set,tid,23
*set,cid,22
r,tid
r,cid
et,tid,170
et,cid,174
eblock,10,,,304
(15i9)
     7831       22       22       22        0     2123     2167     2432     2168     7777     7829     7832     7778
     7832       22       22       22        0     2175     2168     2432     2433     7831     7832     8434     7848
     7833       22       22       22        0     2182     2175     2433     2434     7847     7848     8435     7864
     7834       22       22       22        0     2189     2182     2434     2435     7863     7864     8436     7880
     7835       22       22       22        0     2196     2189     2435     2436     7879     7880     8437     7896
     7836       22       22       22        0     2203     2196     2436     2437     7895     7896     8438     7912
     7837       22       22       22        0     2210     2203     2437     2438     7911     7912     8439     7928
     7838       22       22       22        0     2217     2210     2438     2439     7927     7928     8440     7944
     7839       22       22       22        0     2224     2217     2439     2440     7943     7944     8441     7960
     7840       22       22       22        0     2231     2224     2440     2441     7959     7960     8442     7976
     7841       22       22       22        0     2238     2231     2441     2442     7975     7976     8443     7992
     7842       22       22       22        0     2245     2238     2442     2443     7991     7992     8444     8008
     7843       22       22       22        0     2252     2245     2443     2444     8007     8008     8445     8024
     7844       22       22       22        0     2259     2252     2444     2445     8023     8024     8446     8040
     7845       22       22       22        0     2266     2259     2445     2446     8039     8040     8447     8056
     7846       22       22       22        0     2273     2266     2446     2447     8055     8056     8448     8072
     7847       22       22       22        0     2280     2273     2447     2448     8071     8072     8449     8088
     7848       22       22       22        0     2287     2280     2448     2449     8087     8088     8450     8104
     7849       22       22       22        0     2294     2287     2449     2450     8103     8104     8451     8120
     7850       22       22       22        0     2301     2294     2450     2451     8119     8120     8452     8136
! ... 285 like lines cut
eblock,10,,,272
(15i9)
     8135       23       22       23        0     1555     1561     1828     1592     6561     6575     6608     6562
     8136       23       22       23        0     1599     1592     1828     1829     6607     6608     7146     6624
     8137       23       22       23        0     1606     1599     1829     1830     6623     6624     7147     6640
     8138       23       22       23        0     1613     1606     1830     1831     6639     6640     7148     6656
     8139       23       22       23        0     1620     1613     1831     1832     6655     6656     7149     6672
     8140       23       22       23        0     1627     1620     1832     1833     6671     6672     7150     6688
     8141       23       22       23        0     1634     1627     1833     1834     6687     6688     7151     6704
     8142       23       22       23        0     1641     1634     1834     1835     6703     6704     7152     6720
     8143       23       22       23        0     1648     1641     1835     1836     6719     6720     7153     6736
     8144       23       22       23        0     1655     1648     1836     1837     6735     6736     7154     6752
     8145       23       22       23        0     1662     1655     1837     1838     6751     6752     7155     6768
     8146       23       22       23        0     1669     1662     1838     1839     6767     6768     7156     6784
     8147       23       22       23        0     1676     1669     1839     1840     6783     6784     7157     6800
     8148       23       22       23        0     1683     1676     1840     1841     6799     6800     7158     6816
     8149       23       22       23        0     1690     1683     1841     1842     6815     6816     7159     6832
     8150       23       22       23        0     1697     1690     1842     1843     6831     6832     7160     6848
     8151       23       22       23        0     1704     1697     1843     1844     6847     6848     7161     6864
     8152       23       22       23        0     1711     1704     1844     1845     6863     6864     7162     6880
     8153       23       22       23        0     1718     1711     1845     1846     6879     6880     7163     6896
     8154       23       22       23        0     1725     1718     1846     1847     6895     6896     7164     6912
! ... 253 like lines cut
esel,s,type,,22
cm,contactElems60,elem
cmsel,a,_AllContacts,elem
cm,_AllContacts,elem
cmsel,s,contactElems60,elem
cmdele,contactElems60
keyo,cid,10,2              ! adjust contact stiffness each NR iteration
keyo,cid,6,2               ! Allow for aggressive changes to stiffness
keyo,cid,12,0              ! standard contact
mp,mu,cid,0.15	! unitless
keyo,cid,2,0               ! augmented Lagrange 
keyo,cid,4,0               ! on Gauss point
keyo,cid,9,2               ! use real geometry with ramped effects
keyo,cid,7,0               ! No Prediction
rmod,cid,3,1.	! FKN
rmod,cid,5,0.	! ICONT
rmod,cid,6,0.	! PINB
rmod,cid,10,0.	! CNOF
rmod,cid,12,0.	! FKT
rmod,cid,36,60	! WB DSID
/com,*********** Create Contact "Frictional - RESORTE HEL DAIHATSU TERIOS II TRAS To RESORTE HEL DAIHATSU TERIOS II TRAS" ***********
/com,            Real Constant Set For Above Contact Is 25 & 24 
*set,tid,25
*set,cid,24
r,tid
r,cid
et,tid,170
et,cid,174
eblock,10,,,304
(15i9)
     8407       24       24       24        0     1823     1863     2128     1864     7135     7183     7186     7136
     8408       24       24       24        0     1871     1864     2128     2129     7185     7186     7788     7202
     8409       24       24       24        0     1878     1871     2129     2130     7201     7202     7789     7218
     8410       24       24       24        0     1885     1878     2130     2131     7217     7218     7790     7234
     8411       24       24       24        0     1892     1885     2131     2132     7233     7234     7791     7250
     8412       24       24       24        0     1899     1892     2132     2133     7249     7250     7792     7266
     8413       24       24       24        0     1906     1899     2133     2134     7265     7266     7793     7282
     8414       24       24       24        0     1913     1906     2134     2135     7281     7282     7794     7298
     8415       24       24       24        0     1920     1913     2135     2136     7297     7298     7795     7314
     8416       24       24       24        0     1927     1920     2136     2137     7313     7314     7796     7330
     8417       24       24       24        0     1934     1927     2137     2138     7329     7330     7797     7346
     8418       24       24       24        0     1941     1934     2138     2139     7345     7346     7798     7362
     8419       24       24       24        0     1948     1941     2139     2140     7361     7362     7799     7378
     8420       24       24       24        0     1955     1948     2140     2141     7377     7378     7800     7394
     8421       24       24       24        0     1962     1955     2141     2142     7393     7394     7801     7410
     8422       24       24       24        0     1969     1962     2142     2143     7409     7410     7802     7426
     8423       24       24       24        0     1976     1969     2143     2144     7425     7426     7803     7442
     8424       24       24       24        0     1983     1976     2144     2145     7441     7442     7804     7458
     8425       24       24       24        0     1990     1983     2145     2146     7457     7458     7805     7474
     8426       24       24       24        0     1997     1990     2146     2147     7473     7474     7806     7490
! ... 285 like lines cut
eblock,10,,,240
(15i9)
     8711       25       24       25        0     1548     1560     1561     1555     6546     6572     6561     6545
     8712       25       24       25        0     1548     1541     1563     1560     6529     6530     6573     6546
     8713       25       24       25        0     1541     1534     1564     1563     6513     6514     6578     6530
     8714       25       24       25        0     1534     1527     1565     1564     6497     6498     6579     6514
     8715       25       24       25        0     1527     1520     1566     1565     6481     6482     6580     6498
     8716       25       24       25        0     1520     1513     1567     1566     6465     6466     6581     6482
     8717       25       24       25        0     1513     1506     1568     1567     6449     6450     6582     6466
     8718       25       24       25        0     1506     1499     1569     1568     6433     6434     6583     6450
     8719       25       24       25        0     1499     1492     1570     1569     6417     6418     6584     6434
     8720       25       24       25        0     1492     1485     1571     1570     6401     6402     6585     6418
     8721       25       24       25        0     1485     1478     1572     1571     6385     6386     6586     6402
     8722       25       24       25        0     1478     1471     1573     1572     6369     6370     6587     6386
     8723       25       24       25        0     1471     1464     1574     1573     6353     6354     6588     6370
     8724       25       24       25        0     1464     1457     1575     1574     6337     6338     6589     6354
     8725       25       24       25        0     1457     1450     1576     1575     6321     6322     6590     6338
     8726       25       24       25        0     1318     1351     1578     1352     6054     6095     6098     6055
     8727       25       24       25        0     1359     1352     1578     1579     6097     6098     6593     6114
     8728       25       24       25        0     1366     1359     1579     1580     6113     6114     6594     6130
     8729       25       24       25        0     1373     1366     1580     1581     6129     6130     6595     6146
     8730       25       24       25        0     1380     1373     1581     1582     6145     6146     6596     6162
! ... 221 like lines cut
esel,s,type,,24
cm,contactElems61,elem
cmsel,a,_AllContacts,elem
cm,_AllContacts,elem
cmsel,s,contactElems61,elem
cmdele,contactElems61
keyo,cid,10,2              ! adjust contact stiffness each NR iteration
keyo,cid,6,2               ! Allow for aggressive changes to stiffness
keyo,cid,12,0              ! standard contact
mp,mu,cid,0.15	! unitless
keyo,cid,2,0               ! augmented Lagrange 
keyo,cid,4,0               ! on Gauss point
keyo,cid,9,2               ! use real geometry with ramped effects
keyo,cid,7,0               ! No Prediction
rmod,cid,3,10.	! FKN
rmod,cid,5,0.	! ICONT
rmod,cid,6,0.	! PINB
rmod,cid,10,0.	! CNOF
rmod,cid,12,0.	! FKT
rmod,cid,36,61	! WB DSID
/com,*********** Create Contact "Frictional - RESORTE HEL DAIHATSU TERIOS II TRAS To RESORTE HEL DAIHATSU TERIOS II TRAS" ***********
/com,            Real Constant Set For Above Contact Is 27 & 26 
*set,tid,27
*set,cid,26
r,tid
r,cid
et,tid,170
et,cid,174
eblock,10,,,272
(15i9)
     8951       26       26       26        0     1555     1561     1828     1592     6561     6575     6608     6562
     8952       26       26       26        0     1599     1592     1828     1829     6607     6608     7146     6624
     8953       26       26       26        0     1606     1599     1829     1830     6623     6624     7147     6640
     8954       26       26       26        0     1613     1606     1830     1831     6639     6640     7148     6656
     8955       26       26       26        0     1620     1613     1831     1832     6655     6656     7149     6672
     8956       26       26       26        0     1627     1620     1832     1833     6671     6672     7150     6688
     8957       26       26       26        0     1634     1627     1833     1834     6687     6688     7151     6704
     8958       26       26       26        0     1641     1634     1834     1835     6703     6704     7152     6720
     8959       26       26       26        0     1648     1641     1835     1836     6719     6720     7153     6736
     8960       26       26       26        0     1655     1648     1836     1837     6735     6736     7154     6752
     8961       26       26       26        0     1662     1655     1837     1838     6751     6752     7155     6768
     8962       26       26       26        0     1669     1662     1838     1839     6767     6768     7156     6784
     8963       26       26       26        0     1676     1669     1839     1840     6783     6784     7157     6800
     8964       26       26       26        0     1683     1676     1840     1841     6799     6800     7158     6816
     8965       26       26       26        0     1690     1683     1841     1842     6815     6816     7159     6832
     8966       26       26       26        0     1697     1690     1842     1843     6831     6832     7160     6848
     8967       26       26       26        0     1704     1697     1843     1844     6847     6848     7161     6864
     8968       26       26       26        0     1711     1704     1844     1845     6863     6864     7162     6880
     8969       26       26       26        0     1718     1711     1845     1846     6879     6880     7163     6896
     8970       26       26       26        0     1725     1718     1846     1847     6895     6896     7164     6912
! ... 253 like lines cut
eblock,10,,,192
(15i9)
     9223       27       26       27        0     1313     1325     1326     1152     6047     6067     5674     5673
     9224       27       26       27        0     1159     1152     1326     1327     5672     5674     6068     5696
     9225       27       26       27        0     1166     1159     1327     1328     5695     5696     6069     5712
     9226       27       26       27        0     1173     1166     1328     1329     5711     5712     6070     5728
     9227       27       26       27        0     1180     1173     1329     1330     5727     5728     6071     5744
     9228       27       26       27        0     1187     1180     1330     1331     5743     5744     6072     5760
     9229       27       26       27        0     1194     1187     1331     1332     5759     5760     6073     5776
     9230       27       26       27        0     1201     1194     1332     1333     5775     5776     6074     5792
     9231       27       26       27        0     1208     1201     1333     1334     5791     5792     6075     5808
     9232       27       26       27        0     1215     1208     1334     1335     5807     5808     6076     5824
     9233       27       26       27        0     1222     1215     1335     1336     5823     5824     6077     5840
     9234       27       26       27        0     1229     1222     1336     1337     5839     5840     6078     5856
     9235       27       26       27        0     1236     1229     1337     1338     5855     5856     6079     5872
     9236       27       26       27        0     1243     1236     1338     1339     5871     5872     6080     5888
     9237       27       26       27        0     1250     1243     1339     1340     5887     5888     6081     5904
     9238       27       26       27        0     1257     1250     1340     1341     5903     5904     6082     5920
     9239       27       26       27        0     1264     1257     1341     1342     5919     5920     6083     5936
     9240       27       26       27        0     1271     1264     1342     1343     5935     5936     6084     5952
     9241       27       26       27        0     1278     1271     1343     1344     5951     5952     6085     5968
     9242       27       26       27        0     1285     1278     1344     1345     5967     5968     6086     5984
! ... 173 like lines cut
esel,s,type,,26
cm,contactElems62,elem
cmsel,a,_AllContacts,elem
cm,_AllContacts,elem
cmsel,s,contactElems62,elem
cmdele,contactElems62
keyo,cid,10,2              ! adjust contact stiffness each NR iteration
keyo,cid,6,2               ! Allow for aggressive changes to stiffness
keyo,cid,12,0              ! standard contact
mp,mu,cid,0.15	! unitless
keyo,cid,2,0               ! augmented Lagrange 
keyo,cid,4,0               ! on Gauss point
keyo,cid,9,2               ! use real geometry with ramped effects
keyo,cid,7,0               ! No Prediction
rmod,cid,3,1.	! FKN
rmod,cid,5,0.	! ICONT
rmod,cid,6,0.	! PINB
rmod,cid,10,0.	! CNOF
rmod,cid,12,0.	! FKT
rmod,cid,36,62	! WB DSID
/com,*********** Create Contact "Frictional - RESORTE HEL DAIHATSU TERIOS II TRAS To RESORTE HEL DAIHATSU TERIOS II TRAS" ***********
/com,            Real Constant Set For Above Contact Is 29 & 28 
*set,tid,29
*set,cid,28
r,tid
r,cid
et,tid,170
et,cid,174
eblock,10,,,240
(15i9)
     9415       28       28       28        0     1548     1560     1561     1555     6546     6572     6561     6545
     9416       28       28       28        0     1548     1541     1563     1560     6529     6530     6573     6546
     9417       28       28       28        0     1541     1534     1564     1563     6513     6514     6578     6530
     9418       28       28       28        0     1534     1527     1565     1564     6497     6498     6579     6514
     9419       28       28       28        0     1527     1520     1566     1565     6481     6482     6580     6498
     9420       28       28       28        0     1520     1513     1567     1566     6465     6466     6581     6482
     9421       28       28       28        0     1513     1506     1568     1567     6449     6450     6582     6466
     9422       28       28       28        0     1506     1499     1569     1568     6433     6434     6583     6450
     9423       28       28       28        0     1499     1492     1570     1569     6417     6418     6584     6434
     9424       28       28       28        0     1492     1485     1571     1570     6401     6402     6585     6418
     9425       28       28       28        0     1485     1478     1572     1571     6385     6386     6586     6402
     9426       28       28       28        0     1478     1471     1573     1572     6369     6370     6587     6386
     9427       28       28       28        0     1471     1464     1574     1573     6353     6354     6588     6370
     9428       28       28       28        0     1464     1457     1575     1574     6337     6338     6589     6354
     9429       28       28       28        0     1457     1450     1576     1575     6321     6322     6590     6338
     9430       28       28       28        0     1318     1351     1578     1352     6054     6095     6098     6055
     9431       28       28       28        0     1359     1352     1578     1579     6097     6098     6593     6114
     9432       28       28       28        0     1366     1359     1579     1580     6113     6114     6594     6130
     9433       28       28       28        0     1373     1366     1580     1581     6129     6130     6595     6146
     9434       28       28       28        0     1380     1373     1581     1582     6145     6146     6596     6162
! ... 221 like lines cut
eblock,10,,,192
(15i9)
     9655       29       28       29        0     1313     1325     1326     1152     6047     6067     5674     5673
     9656       29       28       29        0     1159     1152     1326     1327     5672     5674     6068     5696
     9657       29       28       29        0     1166     1159     1327     1328     5695     5696     6069     5712
     9658       29       28       29        0     1173     1166     1328     1329     5711     5712     6070     5728
     9659       29       28       29        0     1180     1173     1329     1330     5727     5728     6071     5744
     9660       29       28       29        0     1187     1180     1330     1331     5743     5744     6072     5760
     9661       29       28       29        0     1194     1187     1331     1332     5759     5760     6073     5776
     9662       29       28       29        0     1201     1194     1332     1333     5775     5776     6074     5792
     9663       29       28       29        0     1208     1201     1333     1334     5791     5792     6075     5808
     9664       29       28       29        0     1215     1208     1334     1335     5807     5808     6076     5824
     9665       29       28       29        0     1222     1215     1335     1336     5823     5824     6077     5840
     9666       29       28       29        0     1229     1222     1336     1337     5839     5840     6078     5856
     9667       29       28       29        0     1236     1229     1337     1338     5855     5856     6079     5872
     9668       29       28       29        0     1243     1236     1338     1339     5871     5872     6080     5888
     9669       29       28       29        0     1250     1243     1339     1340     5887     5888     6081     5904
     9670       29       28       29        0     1257     1250     1340     1341     5903     5904     6082     5920
     9671       29       28       29        0     1264     1257     1341     1342     5919     5920     6083     5936
     9672       29       28       29        0     1271     1264     1342     1343     5935     5936     6084     5952
     9673       29       28       29        0     1278     1271     1343     1344     5951     5952     6085     5968
     9674       29       28       29        0     1285     1278     1344     1345     5967     5968     6086     5984
! ... 173 like lines cut
esel,s,type,,28
cm,contactElems219,elem
cmsel,a,_AllContacts,elem
cm,_AllContacts,elem
cmsel,s,contactElems219,elem
cmdele,contactElems219
keyo,cid,10,2              ! adjust contact stiffness each NR iteration
keyo,cid,6,2               ! Allow for aggressive changes to stiffness
keyo,cid,12,0              ! standard contact
mp,mu,cid,0.15	! unitless
keyo,cid,2,0               ! augmented Lagrange 
keyo,cid,4,0               ! on Gauss point
keyo,cid,9,2               ! use real geometry with ramped effects
keyo,cid,7,0               ! No Prediction
rmod,cid,3,1.	! FKN
rmod,cid,5,0.	! ICONT
rmod,cid,6,0.	! PINB
rmod,cid,10,0.	! CNOF
rmod,cid,12,0.	! FKT
rmod,cid,36,219	! WB DSID
nsel,all
esel,all
/wb,contact,end            !  done creating contacts
/golist
/wb,load,start             !  starting to send loads
nsel,all
/com,*********** Create Remote Point "Internal Remote Point 2" ***********
! -------- Remote Point Used by "Fixed - Ground To COPELA INFERIOR" --------
*set,_npilot,11546
_npilot39=_npilot
mat,7
real,7
type,7
en,9847,796,11546
csys,12
nrot,11546
csys,0
/com,*********** Create Remote Point "Internal Remote Point 4" ***********
! -------- Remote Point Used by "Translational - Ground To COPELA SUPERIOR" --------
*set,_npilot,11548
_npilot43=_npilot
mat,4
real,4
type,4
en,9848,414,11548
csys,13
nrot,11548
csys,0
/com,*********** Create Joint "Fixed - Ground To COPELA INFERIOR" ***********
d,11546,all                   ! body to ground Direct D
/com,*********** Create Joint "Translational - Ground To COPELA SUPERIOR" ***********
/com,            Real Constant Set For Above Joint Is 30
! Joint Element Type Declaration and Definition using MPC184
*set,_jid,30
et,_jid,184
keyo,_jid,1,10          ! Prismatic Joint
sectype,_jid, joint, pris, _wbjoint
secjoint,,13,13
mat,_jid
real,_jid
type,_jid
secnum,_jid
en,1974,,11548        ! body to ground joint
et,31,14             ! spring element type
/com,*********** Construct Weak Springs, Prototype 1 ***********
*set,_delta,13.9413938752198
type,31
mat,32
real,32
r,32,5.57655755008792e-003
nsel,all
*get,_nspr,ndmx
_nspr=_nspr+1
esel,s,mat,,1
nsle,s,active
*get,_minx,node,0,mnloc,x
*get,_miny,node,0,mnloc,y
*get,_minz,node,0,mnloc,z
*get,_maxx,node,0,mxloc,x
*get,_maxy,node,0,mxloc,y
*get,_maxz,node,0,mxloc,z
*dim,_ntets,arra,8
_ntets(1) = NODE(_minx,_miny,_minz)
_ntets(2) = NODE(_minx,_miny,_maxz)
_ntets(3) = NODE(_minx,_maxy,_minz)
_ntets(4) = NODE(_minx,_maxy,_maxz)
_ntets(5) = NODE(_maxx,_miny,_minz)
_ntets(6) = NODE(_maxx,_miny,_maxz)
_ntets(7) = NODE(_maxx,_maxy,_minz)
_ntets(8) = NODE(_maxx,_maxy,_maxz)
*do,_i,1,8
  n,_nspr,nx(_ntets(_i))+_delta,ny(_ntets(_i)),nz(_ntets(_i))
  e,_ntets(_i),_nspr
  d,_nspr,all
  _nspr=_nspr+1
  n,_nspr,nx(_ntets(_i)),ny(_ntets(_i))+_delta,nz(_ntets(_i))
  e,_ntets(_i),_nspr
  d,_nspr,all
  _nspr=_nspr+1
  n,_nspr,nx(_ntets(_i)),ny(_ntets(_i)),nz(_ntets(_i))+_delta
  e,_ntets(_i),_nspr
  d,_nspr,all
  _nspr=_nspr+1
*enddo
*set,_ntets
nsel,all
esel,all
/com,*********** Construct Weak Springs, Prototype 2 ***********
*set,_delta,10.7121430554355
type,31
mat,33
real,33
r,33,4.28485722217418e-003
nsel,all
*get,_nspr,ndmx
_nspr=_nspr+1
esel,s,mat,,2
nsle,s,active
*get,_minx,node,0,mnloc,x
*get,_miny,node,0,mnloc,y
*get,_minz,node,0,mnloc,z
*get,_maxx,node,0,mxloc,x
*get,_maxy,node,0,mxloc,y
*get,_maxz,node,0,mxloc,z
*dim,_ntets,arra,8
_ntets(1) = NODE(_minx,_miny,_minz)
_ntets(2) = NODE(_minx,_miny,_maxz)
_ntets(3) = NODE(_minx,_maxy,_minz)
_ntets(4) = NODE(_minx,_maxy,_maxz)
_ntets(5) = NODE(_maxx,_miny,_minz)
_ntets(6) = NODE(_maxx,_miny,_maxz)
_ntets(7) = NODE(_maxx,_maxy,_minz)
_ntets(8) = NODE(_maxx,_maxy,_maxz)
*do,_i,1,8
  n,_nspr,nx(_ntets(_i))+_delta,ny(_ntets(_i)),nz(_ntets(_i))
  e,_ntets(_i),_nspr
  d,_nspr,all
  _nspr=_nspr+1
  n,_nspr,nx(_ntets(_i)),ny(_ntets(_i))+_delta,nz(_ntets(_i))
  e,_ntets(_i),_nspr
  d,_nspr,all
  _nspr=_nspr+1
  n,_nspr,nx(_ntets(_i)),ny(_ntets(_i)),nz(_ntets(_i))+_delta
  e,_ntets(_i),_nspr
  d,_nspr,all
  _nspr=_nspr+1
*enddo
*set,_ntets
nsel,all
esel,all
/com,*********** Construct Weak Springs, Prototype 3 ***********
*set,_delta,18.1269748370595
type,31
mat,34
real,34
r,34,9.9811907235269e-004
nsel,all
*get,_nspr,ndmx
_nspr=_nspr+1
esel,s,mat,,3
nsle,s,active
*get,_minx,node,0,mnloc,x
*get,_miny,node,0,mnloc,y
*get,_minz,node,0,mnloc,z
*get,_maxx,node,0,mxloc,x
*get,_maxy,node,0,mxloc,y
*get,_maxz,node,0,mxloc,z
*dim,_ntets,arra,8
_ntets(1) = NODE(_minx,_miny,_minz)
_ntets(2) = NODE(_minx,_miny,_maxz)
_ntets(3) = NODE(_minx,_maxy,_minz)
_ntets(4) = NODE(_minx,_maxy,_maxz)
_ntets(5) = NODE(_maxx,_miny,_minz)
_ntets(6) = NODE(_maxx,_miny,_maxz)
_ntets(7) = NODE(_maxx,_maxy,_minz)
_ntets(8) = NODE(_maxx,_maxy,_maxz)
*do,_i,1,8
  n,_nspr,nx(_ntets(_i))+_delta,ny(_ntets(_i)),nz(_ntets(_i))
  e,_ntets(_i),_nspr
  d,_nspr,all
  _nspr=_nspr+1
  n,_nspr,nx(_ntets(_i)),ny(_ntets(_i))+_delta,nz(_ntets(_i))
  e,_ntets(_i),_nspr
  d,_nspr,all
  _nspr=_nspr+1
  n,_nspr,nx(_ntets(_i)),ny(_ntets(_i)),nz(_ntets(_i))+_delta
  e,_ntets(_i),_nspr
  d,_nspr,all
  _nspr=_nspr+1
*enddo
*set,_ntets
nsel,all
esel,all
/com,*********** Create Joint Drivers **********

*DIM,_loadvari95,TABLE,2,1,1,TIME,
! Time values
_loadvari95(1,0,1) = 0.
_loadvari95(2,0,1) = 1.
! Load values
_loadvari95(1,1,1) = 0.
_loadvari95(2,1,1) = 140.

/gst,on,on
fini
*get,_numnode,node,0,count
*get,_numelem,elem,0,count
*get, _MAXELEMNUM, elem, 0, NUM, MAX
*get, _MAXNODENUM, node, 0, NUM, MAX
*get, _MAXELEMTYPE, etyp, 0, NUM, MAX
*get, _MAXREALCONST, real, 0, NUM, MAX
/go
/wb,load,end               !  done creating loads
/com,--- Number of total nodes = %_numnode%
/com,--- Number of contact elements = 7864
/com,--- Number of spring elements = 72
/com,--- Number of bearing elements = 0
/com,--- Number of solid elements = 1972
/com,--- Number of total elements = %_numelem%
*get,_wallbsol,active,,time,wall
/com,****************************************************************************
/com,*************************    SOLUTION       ********************************
/com,****************************************************************************
/solu
antype,0                   ! static analysis
nlgeom,on                  ! Turn on Large Deformation Effects
eqsl,sparse,,,,,1
nropt,full                 ! Use full Newton-Raphson
cntr,print,1               ! print out contact info and also make no initial contact an error
dmpopt,emat,no             ! Don't combine emat file for DANSYS
dmpopt,esav,no             ! Don't combine esav file for DANSYS
nldiag,cont,iter           ! print out contact info each equilibrium iteration
resc,define,last,last,,dele	   ! Program Controlled
/com,****************************************************
/com,******************* SOLVE FOR LS 1 ****************
/nopr
/gopr
esel,s,type,,30
dj,all,ux,%_loadvari95%
esel,all
autots,on                   ! User turned on automatic time stepping
deltim,0.0001,1e-006,0.1,OFF
time,1.
outres,erase
outres,all,none
outres,nsol,-50
outres,rsol,-50
outres,nload,-50
outres,strs,-50
outres,epel,-50
outres,eppl,-50
outres,misc,-50,_AllContacts
outres,misc,-50
stabilize,off                   ! Stabilization turned OFF by user
cnvtol,f,,0.005,,0.01
cnvtol,,-1,3               ! User deleted Convergence, m
cnvtol,,-1,2               ! User deleted Convergence, u
cnvtol,,-1,4               ! User deleted Convergence, rot
nldiag,nrre,on,5
! *********** WB SOLVE COMMAND ***********
! check interactive state
*get,ANSINTER_,active,,int
*if,ANSINTER_,ne,0,then
/eof
*endif
solve
/com *************** Write FE CONNECTORS ********* 
CEWRITE,file,ce,,INTE
/com,****************************************************
/com,*************** FINISHED SOLVE FOR LS 1 *************
*set,_DS_PROGRESS          ! turn off progress updates to avoid virus scanning bug
*get,_wallasol,active,,time,wall
/nopr
*get,_numnode,node,0,count
*get,_numelem,elem,0,count
*get, _MAXELEMNUM, elem, 0, NUM, MAX
*get, _MAXNODENUM, node, 0, NUM, MAX,,,INTERNAL
*get, _MAXELEMTYPE, etyp, 0, NUM, MAX
*get, _MAXREALCONST, real, 0, NUM, MAX
/gopr
/post1
xmlo,ENCODING,ISO-8859-1
xmlo,parm
/xml,parm,xml
fini
/gopr
*get,_walldone,active,,time,wall
_preptime=(_wallbsol-_wallstrt)*3600
_solvtime=(_wallasol-_wallbsol)*3600
_posttime=(_walldone-_wallasol)*3600
_totaltim=(_walldone-_wallstrt)*3600
/wb,file,end               ! done with WB generated input
