
 ANSYS Mechanical Premium                          


 *------------------------------------------------------------------*
 |                                                                  |
 |   W E L C O M E   T O   T H E   A N S Y S (R)  P R O G R A M     |
 |                                                                  |
 *------------------------------------------------------------------*




 ***************************************************************
 *            ANSYS Release 17.0     LEGAL NOTICES             *
 ***************************************************************
 *                                                             *
 * Copyright 2015 SAS IP, Inc.  All rights reserved.           *
 * Unauthorized use, distribution or duplication is            *
 * prohibited.                                                 *
 *                                                             *
 * Ansys is a registered trademark of ANSYS, Inc. or its       *
 * subsidiaries in the United States or other countries.       *
 * See the ANSYS, Inc. online documentation or the ANSYS, Inc. *
 * documentation CD or online help for the complete Legal      *
 * Notice.                                                     *
 *                                                             *
 ***************************************************************
 *                                                             *
 * THIS ANSYS SOFTWARE PRODUCT AND PROGRAM DOCUMENTATION       *
 * INCLUDE TRADE SECRETS AND CONFIDENTIAL AND PROPRIETARY      *
 * PRODUCTS OF ANSYS, INC., ITS SUBSIDIARIES, OR LICENSORS.    *
 * The software products and documentation are furnished by    *
 * ANSYS, Inc. or its subsidiaries under a software license    *
 * agreement that contains provisions concerning               *
 * non-disclosure, copying, length and nature of use,          *
 * compliance with exporting laws, warranties, disclaimers,    *
 * limitations of liability, and remedies, and other           *
 * provisions.  The software products and documentation may be *
 * used, disclosed, transferred, or copied only in accordance  *
 * with the terms and conditions of that software license      *
 * agreement.                                                  *
 *                                                             *
 * ANSYS, Inc. is a UL registered                              *
 * ISO 9001:2008 company.                                      *
 *                                                             *
 ***************************************************************
 *                                                             *
 * This product is subject to U.S. laws governing export and   *
 * re-export.                                                  *
 *                                                             *
 * For U.S. Government users, except as specifically granted   *
 * by the ANSYS, Inc. software license agreement, the use,     *
 * duplication, or disclosure by the United States Government  *
 * is subject to restrictions stated in the ANSYS, Inc.        *
 * software license agreement and FAR 12.212 (for non-DOD      *
 * licenses).                                                  *
 *                                                             *
 ***************************************************************

 Release 17.0
     
 Point Releases and Patches installed:   
     
 ANSYS, Inc. Products Release 17.0   
 ANSYS Mechanical Products Release 17.0  
 ANSYS Autodyn Release 17.0  
 ANSYS LS-DYNA Release 17.0  
 ANSYS AIM Release 17.0  
 ANSYS CFX (includes ANSYS CFD-Post) Release 17.0
 ANSYS Fluent (includes ANSYS CFD-Post) Release 17.0 
 ANSYS TurboGrid Release 17.0
 ANSYS Polyflow (includes ANSYS CFD-Post) Release 17.0   
 ANSYS Forte Release 17.0
 ANSYS ICEM CFD Release 17.0 
 ANSYS Aqwa Release 17.0 
 ANSYS Composite PrepPost Release 17.0   
 ANSYS Icepak (includes ANSYS CFD-Post) Release 17.0 
 AutoCAD Release 17.0
 ACIS Release 17.0   
 Catia, Version 4 Release 17.0   
 Catia, Version 6 Release 17.0   
 Creo Elements/Direct Modeling Release 17.0  
 Inventor Release 17.0   
 JTOpen Release 17.0 
 NX Release 17.0 
 Parasolid Release 17.0  
 Creo Parametric (formerly Pro/ENGINEER) Release 17.0
 Solid Edge Release 17.0 
 SolidWorks Release 17.0 
 ANSYS, Inc. License Manager Release 17.0


          *****  ANSYS COMMAND LINE ARGUMENTS  *****
  BATCH MODE REQUESTED (-b)    = NOLIST
  INPUT FILE COPY MODE (-c)    = COPY
  DISTRIBUTED MEMORY PARALLEL REQUESTED
       4 PARALLEL PROCESSES REQUESTED WITH SINGLE THREAD PER PROCESS
    TOTAL OF     4 CORES REQUESTED
  MPI OPTION                   = INTELMPI
  INPUT FILE NAME              = C:\Users\aprietop\Documents\2024\DAIHATSU TERIOS 2006-2018 TRAS\ANALISIS ANSYS\_ProjectScratch\Scr90B9\dummy.dat
  OUTPUT FILE NAME             = C:\Users\aprietop\Documents\2024\DAIHATSU TERIOS 2006-2018 TRAS\ANALISIS ANSYS\_ProjectScratch\Scr90B9\solve.out
  START-UP FILE MODE           = NOREAD
  STOP FILE MODE               = NOREAD

 RELEASE= Release 17.0         BUILD= 17.0      UP20151214   VERSION=WINDOWS x64 
 CURRENT JOBNAME=file0  08:19:29  NOV 07, 2024 CP=      0.266


 PARAMETER _DS_PROGRESS =     999.0000000    

 /INPUT FILE= ds.dat  LINE=       0



 *** NOTE ***                            CP =       0.359   TIME= 08:19:29
 The /CONFIG,NOELDB command is not valid in a Distributed ANSYS          
 solution.  Command is ignored.                                          

 *GET  _WALLSTRT  FROM  ACTI  ITEM=TIME WALL  VALUE=  8.32472222    

 TITLE= 
 DAIHATSU TERIOS 2006-2018 TRAS--Static Structural (B5)                        


 SET PARAMETER DIMENSIONS ON  _WB_PROJECTSCRATCH_DIR
  TYPE=STRI  DIMENSIONS=      248        1        1

 PARAMETER _WB_PROJECTSCRATCH_DIR(1) = C:\Users\aprietop\Documents\2024\DAIHATSU TERIOS 2006-2018 TRAS\ANALISIS ANSYS\_ProjectScratch\Scr90B9\

 SET PARAMETER DIMENSIONS ON  _WB_SOLVERFILES_DIR
  TYPE=STRI  DIMENSIONS=      248        1        1

 PARAMETER _WB_SOLVERFILES_DIR(1) = C:\Users\aprietop\Documents\2024\DAIHATSU TERIOS 2006-2018 TRAS\ANALISIS ANSYS\DAIHATSU TERIOS 2006-2018 TRAS_files\dp0\SYS\MECH\

 SET PARAMETER DIMENSIONS ON  _WB_USERFILES_DIR
  TYPE=STRI  DIMENSIONS=      248        1        1

 PARAMETER _WB_USERFILES_DIR(1) = C:\Users\aprietop\Documents\2024\DAIHATSU TERIOS 2006-2018 TRAS\ANALISIS ANSYS\DAIHATSU TERIOS 2006-2018 TRAS_files\user_files\
 --- Data in consistent NMM units. See Solving Units in the help system for more

 MPA UNITS SPECIFIED FOR INTERNAL    
  LENGTH      = MILLIMETERS (mm)
  MASS        = TONNE (Mg)
  TIME        = SECONDS (sec)
  TEMPERATURE = CELSIUS (C)
  TOFFSET     = 273.0
  FORCE       = NEWTON (N)
  HEAT        = MILLIJOULES (mJ)

 INPUT  UNITS ARE ALSO SET TO MPA 

 *** ANSYS - ENGINEERING ANALYSIS SYSTEM  RELEASE Release 17.0     17.0     ***
 DISTRIBUTED ANSYS Mechanical Premium                          

 00338920  VERSION=WINDOWS x64   08:19:29  NOV 07, 2024 CP=      0.359

 DAIHATSU TERIOS 2006-2018 TRAS--Static Structural (B5)                        



          ***** ANSYS ANALYSIS DEFINITION (PREP7) *****
 *********** Nodes for the whole assembly ***********
 *********** Elements for Body 1 "COPELA INFERIOR" ***********
 *********** Send Body as a Rigid Body ***********
 *********** Elements for Body 2 "COPELA SUPERIOR" ***********
 *********** Send Body as a Rigid Body ***********
 *********** Elements for Body 3 "RESORTE HEL DAIHATSU TERIOS II TRAS" *********
 *********** Send User Defined Coordinate System(s) ***********
 *********** Set Reference Temperature ***********
 *********** Send Materials ***********
 *********** Create Contact "Frictional - RESORTE HEL DAIHATSU TERIOS II TRAS To
             Real Constant Set For Above Contact Is 6 & 5
 *********** Create Contact "Frictional - RESORTE HEL DAIHATSU TERIOS II TRAS To
             Real Constant Set For Above Contact Is 9 & 8
 *********** Create Contact "Frictional - RESORTE HEL DAIHATSU TERIOS II TRAS To
             Real Constant Set For Above Contact Is 11 & 10
 *********** Create Contact "Frictional - RESORTE HEL DAIHATSU TERIOS II TRAS To
             Real Constant Set For Above Contact Is 13 & 12
 *********** Create Contact "Frictional - RESORTE HEL DAIHATSU TERIOS II TRAS To
             Real Constant Set For Above Contact Is 15 & 14
 *********** Create Contact "Frictional - RESORTE HEL DAIHATSU TERIOS II TRAS To
             Real Constant Set For Above Contact Is 17 & 16
 *********** Create Contact "Frictional - RESORTE HEL DAIHATSU TERIOS II TRAS To
             Real Constant Set For Above Contact Is 19 & 18
 *********** Create Contact "Frictional - RESORTE HEL DAIHATSU TERIOS II TRAS To
             Real Constant Set For Above Contact Is 21 & 20
 *********** Create Contact "Frictional - RESORTE HEL DAIHATSU TERIOS II TRAS To
             Real Constant Set For Above Contact Is 23 & 22
 *********** Create Contact "Frictional - RESORTE HEL DAIHATSU TERIOS II TRAS To
             Real Constant Set For Above Contact Is 25 & 24
 *********** Create Contact "Frictional - RESORTE HEL DAIHATSU TERIOS II TRAS To
             Real Constant Set For Above Contact Is 27 & 26
 *********** Create Contact "Frictional - RESORTE HEL DAIHATSU TERIOS II TRAS To
             Real Constant Set For Above Contact Is 29 & 28
 *********** Create Remote Point "Internal Remote Point 2" ***********
 *********** Create Remote Point "Internal Remote Point 4" ***********
 *********** Create Joint "Fixed - Ground To COPELA INFERIOR" ***********
 *********** Create Joint "Translational - Ground To COPELA SUPERIOR" **********
             Real Constant Set For Above Joint Is 30
 *********** Construct Weak Springs, Prototype 1 ***********
 *********** Construct Weak Springs, Prototype 2 ***********
 *********** Construct Weak Springs, Prototype 3 ***********
 *********** Create Joint Drivers **********


 ***** ROUTINE COMPLETED *****  CP =         0.406


 --- Number of total nodes = 11620
 --- Number of contact elements = 7864
 --- Number of spring elements = 72
 --- Number of bearing elements = 0
 --- Number of solid elements = 1972
 --- Number of total elements = 9675

 *GET  _WALLBSOL  FROM  ACTI  ITEM=TIME WALL  VALUE=  8.32472222    
 ****************************************************************************
 *************************    SOLUTION       ********************************
 ****************************************************************************

 *****  ANSYS SOLUTION ROUTINE  *****


 PERFORM A STATIC ANALYSIS
  THIS WILL BE A NEW ANALYSIS

 LARGE DEFORMATION ANALYSIS

 USE SPARSE MATRIX DIRECT SOLVER

 USE THE FULL NEWTON-RAPHSON OPTION FOR  ALL DEGREES OF FREEDOM
   AND USE THE DEFAULT ADAPTIVE DESCENT OPTION

 CONTACT INFORMATION PRINTOUT LEVEL       1

 DO NOT COMBINE ELEMENT MATRIX FILES (.emat) AFTER DISTRIBUTED PARALLEL SOLUTION

 DO NOT COMBINE ELEMENT SAVE DATA FILES (.esav) AFTER DISTRIBUTED PARALLEL SOLUTION

 NLDIAG: Nonlinear diagnostics CONT option is set to ON. 
         Writing frequency : each ITERATION.

 DEFINE RESTART CONTROL FOR LOADSTEP LAST
 AT FREQUENCY OF LAST AND NUMBER FOR OVERWRITE IS    0

 DELETE RESTART FILES OF ENDSTEP
 ****************************************************
 ******************* SOLVE FOR LS 1 ****************

 PRINTOUT RESUMED BY /GOP

 SELECT       FOR ITEM=TYPE COMPONENT=    
  IN RANGE        30 TO         30 STEP          1

          1  ELEMENTS (OF       9675  DEFINED) SELECTED BY  ESEL  COMMAND.

 APPLIED BOUNDARY CONDITIONS OR FORCES FOR JOINT ELEMENTS

SPECIFIED VALUE FOR ALL SELECTED ELEMENTS
FORCE, MOMENT, DISPLACEMENT OR ROTATION LABEL = UX  
SET ACCORDING TO TABLE PARAMETER              = _LOADVARI95                     

 ALL SELECT   FOR ITEM=ELEM COMPONENT=    
  IN RANGE         1 TO       9920 STEP          1

       9675  ELEMENTS (OF       9675  DEFINED) SELECTED BY  ESEL  COMMAND.

 USE AUTOMATIC TIME STEPPING THIS LOAD STEP

 USE INITIAL TIME STEP SIZE OF 0.1000000E-03 FOR ALL  DEGREES OF FREEDOM
 FOR AUTOMATIC TIME STEPPING:
   USE 0.1000000E-05 AS THE MINIMUM TIME STEP SIZE
   USE 0.1000000     AS THE MAXIMUM TIME STEP SIZE

 TIME=  1.0000    

 ERASE THE CURRENT DATABASE OUTPUT CONTROL TABLE.


 WRITE ALL  ITEMS TO THE DATABASE WITH A FREQUENCY OF NONE
   FOR ALL APPLICABLE ENTITIES

 WRITE NSOL ITEMS TO THE DATABASE WITH A FREQUENCY OF    -50
   FOR ALL APPLICABLE ENTITIES

 WRITE RSOL ITEMS TO THE DATABASE WITH A FREQUENCY OF    -50
   FOR ALL APPLICABLE ENTITIES

 WRITE NLOA ITEMS TO THE DATABASE WITH A FREQUENCY OF    -50
   FOR ALL APPLICABLE ENTITIES

 WRITE STRS ITEMS TO THE DATABASE WITH A FREQUENCY OF    -50
   FOR ALL APPLICABLE ENTITIES

 WRITE EPEL ITEMS TO THE DATABASE WITH A FREQUENCY OF    -50
   FOR ALL APPLICABLE ENTITIES

 WRITE EPPL ITEMS TO THE DATABASE WITH A FREQUENCY OF    -50
   FOR ALL APPLICABLE ENTITIES

 WRITE MISC ITEMS TO THE DATABASE WITH A FREQUENCY OF    -50
   FOR THE ENTITIES DEFINED BY COMPONENT _ALLCONTACTS

 WRITE MISC ITEMS TO THE DATABASE WITH A FREQUENCY OF    -50
   FOR ALL APPLICABLE ENTITIES

 NONLINEAR STABILIZATION CONTROL:
 KEY=OFF 


 CONVERGENCE ON F    BASED ON THE NORM OF THE N-R LOAD
   WITH A TOLERANCE OF 0.5000E-02 AND A MINIMUM REFERENCE VALUE OF 0.1000E-01
   USING THE L2 NORM (CHECK THE SRSS VALUE)

 *** NOTE ***                            CP =       0.406   TIME= 08:19:29
 Even though no prior convergence specification exists for removal.  The 
 CNVTOL command is still executed for removal of label M.                

 CONVERGENCE BASED ON M    IS REMOVED

 *** NOTE ***                            CP =       0.406   TIME= 08:19:29
 Even though no prior convergence specification exists for removal.  The 
 CNVTOL command is still executed for removal of label U.                

 CONVERGENCE BASED ON U    IS REMOVED

 *** NOTE ***                            CP =       0.406   TIME= 08:19:29
 Even though no prior convergence specification exists for removal.  The 
 CNVTOL command is still executed for removal of label ROT.              

 CONVERGENCE BASED ON ROT  IS REMOVED

 NLDIAG: Nonlinear diagnostics NRRE option is set to ON. 
 The number of files/iterations to be saved for NRRE nonlinear diagnostics has been set to   5

 *GET  ANSINTER_  FROM  ACTI  ITEM=INT        VALUE=  0.00000000    

 *IF  ANSINTER_                         ( =   0.00000     )  NE  
      0                                 ( =   0.00000     )  THEN    

 *ENDIF

 *****  ANSYS SOLVE    COMMAND  *****

 *** WARNING ***                         CP =       0.438   TIME= 08:19:29
 Element shape checking is currently inactive.  Issue SHPP,ON or         
 SHPP,WARN to reactivate, if desired.                                    

 *** NOTE ***                            CP =       0.453   TIME= 08:19:29
 The model data was checked and warning messages were found.             
  Please review output or errors file (                                  
 C:\Users\aprietop\Documents\2024\DAIHATSU TERIOS 2006-2018              
 TRAS\ANALISIS ANSYS\_ProjectScratch\Scr90B9\file0.err ) for these       
 warning messages.                                                       

 *** SELECTION OF ELEMENT TECHNOLOGIES FOR APPLICABLE ELEMENTS ***
      --- GIVE SUGGESTIONS AND RESET THE KEY OPTIONS ---

 ELEMENT TYPE    3 IS SOLID186. KEYOPT(2)=0 IS SUGGESTED AND HAS BEEN RESET.
  KEYOPT(1-12)=    0    0    0    0    0    0    0    0    0    0    0    0



 *** ANSYS - ENGINEERING ANALYSIS SYSTEM  RELEASE Release 17.0     17.0     ***
 DISTRIBUTED ANSYS Mechanical Premium                          

 00338920  VERSION=WINDOWS x64   08:19:29  NOV 07, 2024 CP=      0.453

 DAIHATSU TERIOS 2006-2018 TRAS--Static Structural (B5)                        



                       S O L U T I O N   O P T I O N S

   PROBLEM DIMENSIONALITY. . . . . . . . . . . . .3-D                  
   DEGREES OF FREEDOM. . . . . . UX   UY   UZ   ROTX ROTY ROTZ
   ANALYSIS TYPE . . . . . . . . . . . . . . . . .STATIC (STEADY-STATE)
   OFFSET TEMPERATURE FROM ABSOLUTE ZERO . . . . .  273.15    
   NONLINEAR GEOMETRIC EFFECTS . . . . . . . . . .ON
   EQUATION SOLVER OPTION. . . . . . . . . . . . .SPARSE             
   NEWTON-RAPHSON OPTION . . . . . . . . . . . . .FULL             
   GLOBALLY ASSEMBLED MATRIX . . . . . . . . . . .SYMMETRIC  

 *** WARNING ***                         CP =       0.453   TIME= 08:19:29
 Material number 30 (used by element 1974 ) should normally have at      
 least one MP or one TB type command associated with it.  Output of      
 energy by material may not be available.                                

 *** NOTE ***                            CP =       0.500   TIME= 08:19:29
 The step data was checked and warning messages were found.              
  Please review output or errors file (                                  
 C:\Users\aprietop\Documents\2024\DAIHATSU TERIOS 2006-2018              
 TRAS\ANALISIS ANSYS\_ProjectScratch\Scr90B9\file0.err ) for these       
 warning messages.                                                       

 *** NOTE ***                            CP =       0.516   TIME= 08:19:29
 Internal nodes from 11621 to 11627 are created.                         
 4 internal nodes are used for handling degrees of freedom on pilot      
 nodes of rigid target surfaces.                                         
 3 internal nodes are used for non-contact elements with mixed           
 formulation.                                                            

 *** NOTE ***                            CP =       0.547   TIME= 08:19:29
 Internal nodes from 11621 to 11627 are created.                         
 4 internal nodes are used for handling degrees of freedom on pilot      
 nodes of rigid target surfaces.                                         
 3 internal nodes are used for non-contact elements with mixed           
 formulation.                                                            
 *WARNING*: Node 414 is applied on different contact pairs (real ID 4 &  
 5) as the pilot node.  These two pairs will be merged.                  
 *WARNING*: Node 60 has been used on different contact pairs (real ID 4  
 & 5).  These two pairs will be merged.  Please check the model          
 carefully.                                                              
 *WARNING*: Some contact elements on contact surface specified by real   
 constant set 18 belong to symmetric contact (e.g.  22), some do not.    

 *** WARNING ***                         CP =       1.531   TIME= 08:19:30
 Node 1318 connects both contact element 9430 and target element 9678.   
 Please check the model carefully.                                       

 *** NOTE ***                            CP =       1.578   TIME= 08:19:30
 It is highly recommended to use the auto contact setting option by      
 issuing CNCHECK,AUTO command for this problem in order to achieve       
 better convergence.                                                     

 *** NOTE ***                            CP =       1.578   TIME= 08:19:30
 Rigid target surface identified by real constant set 4.  The degrees    
 of freedom of the rigid surface are driven by the pilot node 414.       
 Internal MPC will be built.                                             
 Boundary conditions can be applied on any target node.
 This pair will be merged with other pair defined by real constant set   
 5.                                                                      
 The used degrees of freedom set is  UX   UY   UZ   ROTX ROTY ROTZ
 ****************************************
  

 *** NOTE ***                            CP =       1.578   TIME= 08:19:30
 Rigid-deformable contact pair identified by real constant set 5 and     
 contact element type 5 has been set up.  The degrees of freedom of the  
 rigid surface are driven by the pilot node 414.                         
 Boundary conditions can be applied on any target node.
 This pair will be merged with other pair defined by real constant set   
 4.                                                                      
 Contact algorithm: Augmented Lagrange method
 Contact detection at: Gauss integration point
 Aggressive variation of contact stiffness is activated,                 
 Contact stiffness factor FKN                  1.0000    
 The resulting initial contact stiffness      0.82340E+06
 Default penetration tolerance factor FTOLN   0.10000    
 The resulting penetration tolerance          0.51008    
 Max. initial friction coefficient MU         0.30000    
 Default tangent stiffness factor FKT          1.0000    
 Default elastic slip factor SLTOL            0.10000E-01
 The resulting elastic slip                   0.51112E-01
 Update contact stiffness at each iteration
 Default Max. friction stress TAUMAX          0.10000E+21
 Average contact surface length                5.1112    
 Average contact pair depth                    5.1008    
 Default pinball region factor PINB            3.0000    
 The resulting pinball region                  15.302    

 *** NOTE ***                            CP =       1.578   TIME= 08:19:30
 One of the contact searching regions contains at least 73 target        
 elements.  You may reduce the pinball radius.                           
 Auto contact offset used to close gap        0.83585E-01
 Initial penetration is excluded.

 *** NOTE ***                            CP =       1.578   TIME= 08:19:30
 Min.  Initial gap 8.275728953E-02 was detected between contact element  
 2383 and target element 3051.                                           
 The gap is closed due to initial settings.                              
 ****************************************
  

 *** NOTE ***                            CP =       1.578   TIME= 08:19:30
 Rigid target surface identified by real constant set 7.  The degrees    
 of freedom of the rigid surface are driven by the pilot node 796.       
 Internal MPC will be built.                                             
 Boundary conditions can be applied on any target node.
 This pair will be merged with other pair defined by real constant set   
 8.                                                                      
 The used degrees of freedom set is  UX   UY   UZ   ROTX ROTY ROTZ
 *WARNING*: Boundary conditions, coupling, and/or constraint equations   
 have been applied on certain target nodes (for example 11546).          
 ****************************************
  

 *** NOTE ***                            CP =       1.578   TIME= 08:19:30
 Rigid-deformable contact pair identified by real constant set 8 and     
 contact element type 8 has been set up.  The degrees of freedom of the  
 rigid surface are driven by the pilot node 796.                         
 Boundary conditions can be applied on any target node.
 This pair will be merged with other pair defined by real constant set   
 7.                                                                      
 Contact algorithm: Augmented Lagrange method
 Contact detection at: Gauss integration point
 Aggressive variation of contact stiffness is activated,                 
 Contact stiffness factor FKN                  1.0000    
 The resulting initial contact stiffness      0.83789E+06
 Default penetration tolerance factor FTOLN   0.10000    
 The resulting penetration tolerance          0.50126    
 Max. initial friction coefficient MU         0.30000    
 Default tangent stiffness factor FKT          1.0000    
 Default elastic slip factor SLTOL            0.10000E-01
 The resulting elastic slip                   0.44961E-01
 Update contact stiffness at each iteration
 Default Max. friction stress TAUMAX          0.10000E+21
 Average contact surface length                4.4961    
 Average contact pair depth                    5.0126    
 Default pinball region factor PINB            3.0000    
 The resulting pinball region                  15.038    

 *** NOTE ***                            CP =       1.578   TIME= 08:19:30
 One of the contact searching regions contains at least 53 target        
 elements.  You may reduce the pinball radius.                           
 Auto contact offset used to close gap        0.21615    
 Initial penetration is excluded.

 *** NOTE ***                            CP =       1.578   TIME= 08:19:30
 Min.  Initial gap 0.214008441 was detected between contact element 3595 
 and target element 4593.                                                
 The gap is closed due to initial settings.                              
 ****************************************
  

 *** NOTE ***                            CP =       1.578   TIME= 08:19:30
 Deformable-deformable contact pair identified by real constant set 10   
 and contact element type 10 has been set up.                            
 Contact algorithm: Augmented Lagrange method
 Contact detection at: Gauss integration point
 Aggressive variation of contact stiffness is activated,                 
 Contact stiffness factor FKN                  1.0000    
 The resulting initial contact stiffness      0.80686E+06
 Default penetration tolerance factor FTOLN   0.10000    
 The resulting penetration tolerance          0.52054    
 Auto stabilization damping may be applied
 Stabilization damping may be activated in the 1st load step
 Max. initial friction coefficient MU         0.15000    
 Default tangent stiffness factor FKT          1.0000    
 Default elastic slip factor SLTOL            0.10000E-01
 The resulting elastic slip                   0.54888E-01
 Update contact stiffness at each iteration
 Default Max. friction stress TAUMAX          0.10000E+21
 Average contact surface length                5.4888    
 Average contact pair depth                    5.2054    
 Default pinball region factor PINB            4.0000    
 The resulting pinball region                  20.822    

 *** NOTE ***                            CP =       1.578   TIME= 08:19:30
 One of the contact searching regions contains at least 248 target       
 elements.  You may reduce the pinball radius.                           
 Initial penetration will be ramped during the first load step.

 *** NOTE ***                            CP =       1.578   TIME= 08:19:30
 Min.  Initial gap 8.0702315 was detected between contact element 4714   
 and target element 5014.                                                
 You may move entire target surface by: x= 6.34725433, y= -0.309106142,  
 z= 4.9744801, to bring it in contact.                                   
 ****************************************
  

 *** NOTE ***                            CP =       1.578   TIME= 08:19:30
 Deformable-deformable contact pair identified by real constant set 12   
 and contact element type 12 has been set up.                            
 Contact algorithm: Augmented Lagrange method
 Contact detection at: Gauss integration point
 Aggressive variation of contact stiffness is activated,                 
 Contact stiffness factor FKN                  1.0000    
 The resulting initial contact stiffness      0.81186E+06
 Default penetration tolerance factor FTOLN   0.10000    
 The resulting penetration tolerance          0.51733    
 Max. initial friction coefficient MU         0.15000    
 Default tangent stiffness factor FKT          1.0000    
 Default elastic slip factor SLTOL            0.10000E-01
 The resulting elastic slip                   0.51031E-01
 Update contact stiffness at each iteration
 Default Max. friction stress TAUMAX          0.10000E+21
 Average contact surface length                5.1031    
 Average contact pair depth                    5.1733    
 Default pinball region factor PINB            4.0000    
 The resulting pinball region                  20.693    

 *** NOTE ***                            CP =       1.578   TIME= 08:19:30
 One of the contact searching regions contains at least 80 target        
 elements.  You may reduce the pinball radius.                           
 Initial penetration will be ramped during the first load step.

 *** NOTE ***                            CP =       1.578   TIME= 08:19:30
 No contact was detected for this contact pair.                          
 ****************************************
  

 *** NOTE ***                            CP =       1.578   TIME= 08:19:30
 Deformable-deformable contact pair identified by real constant set 14   
 and contact element type 14 has been set up.                            
 Contact algorithm: Augmented Lagrange method
 Contact detection at: Gauss integration point
 Aggressive variation of contact stiffness is activated,                 
 Contact stiffness factor FKN                  1.0000    
 The resulting initial contact stiffness      0.83495E+06
 Default penetration tolerance factor FTOLN   0.10000    
 The resulting penetration tolerance          0.50303    
 Max. initial friction coefficient MU         0.15000    
 Default tangent stiffness factor FKT          1.0000    
 Default elastic slip factor SLTOL            0.10000E-01
 The resulting elastic slip                   0.50859E-01
 Update contact stiffness at each iteration
 Default Max. friction stress TAUMAX          0.10000E+21
 Average contact surface length                5.0859    
 Average contact pair depth                    5.0303    
 Default pinball region factor PINB            4.0000    
 The resulting pinball region                  20.121    
 Initial penetration will be ramped during the first load step.

 *** NOTE ***                            CP =       1.578   TIME= 08:19:30
 No contact was detected for this contact pair.                          
 ****************************************
  

 *** NOTE ***                            CP =       1.578   TIME= 08:19:30
 Deformable-deformable contact pair identified by real constant set 16   
 and contact element type 16 has been set up.                            
 Contact algorithm: Augmented Lagrange method
 Contact detection at: Gauss integration point
 Aggressive variation of contact stiffness is activated,                 
 Contact stiffness factor FKN                  1.0000    
 The resulting initial contact stiffness      0.82908E+06
 Default penetration tolerance factor FTOLN   0.10000    
 The resulting penetration tolerance          0.50658    
 Max. initial friction coefficient MU         0.15000    
 Default tangent stiffness factor FKT          1.0000    
 Default elastic slip factor SLTOL            0.10000E-01
 The resulting elastic slip                   0.49597E-01
 Update contact stiffness at each iteration
 Default Max. friction stress TAUMAX          0.10000E+21
 Average contact surface length                4.9597    
 Average contact pair depth                    5.0658    
 Default pinball region factor PINB            4.0000    
 The resulting pinball region                  20.263    
 Initial penetration will be ramped during the first load step.

 *** NOTE ***                            CP =       1.578   TIME= 08:19:30
 No contact was detected for this contact pair.                          
 ****************************************
  

 *** NOTE ***                            CP =       1.578   TIME= 08:19:30
 Deformable-deformable contact pair identified by real constant set 18   
 and contact element type 18 has been set up.                            
 Contact algorithm: Augmented Lagrange method
 Contact detection at: Gauss integration point
 Aggressive variation of contact stiffness is activated,                 
 Contact stiffness factor FKN                  1.0000    
 The resulting initial contact stiffness      0.84207E+06
 Default penetration tolerance factor FTOLN   0.10000    
 The resulting penetration tolerance          0.49877    
 Max. initial friction coefficient MU         0.15000    
 Default tangent stiffness factor FKT          1.0000    
 Default elastic slip factor SLTOL            0.10000E-01
 The resulting elastic slip                   0.47711E-01
 Update contact stiffness at each iteration
 Default Max. friction stress TAUMAX          0.10000E+21
 Average contact surface length                4.7711    
 Average contact pair depth                    4.9877    
 Default pinball region factor PINB            4.0000    
 The resulting pinball region                  19.951    
 Initial penetration will be ramped during the first load step.

 *** NOTE ***                            CP =       1.578   TIME= 08:19:30
 No contact was detected for this contact pair.                          
 ****************************************
  

 *** NOTE ***                            CP =       1.578   TIME= 08:19:30
 Deformable-deformable contact pair identified by real constant set 20   
 and contact element type 20 has been set up.                            
 Contact algorithm: Augmented Lagrange method
 Contact detection at: Gauss integration point
 Aggressive variation of contact stiffness is activated,                 
 Contact stiffness factor FKN                  1.0000    
 The resulting initial contact stiffness      0.84065E+06
 Default penetration tolerance factor FTOLN   0.10000    
 The resulting penetration tolerance          0.49961    
 Max. initial friction coefficient MU         0.15000    
 Default tangent stiffness factor FKT          1.0000    
 Default elastic slip factor SLTOL            0.10000E-01
 The resulting elastic slip                   0.46065E-01
 Update contact stiffness at each iteration
 Default Max. friction stress TAUMAX          0.10000E+21
 Average contact surface length                4.6065    
 Average contact pair depth                    4.9961    
 Default pinball region factor PINB            4.0000    
 The resulting pinball region                  19.984    
 Initial penetration will be ramped during the first load step.

 *** NOTE ***                            CP =       1.578   TIME= 08:19:30
 No contact was detected for this contact pair.                          
 ****************************************
  

 *** NOTE ***                            CP =       1.578   TIME= 08:19:30
 Deformable-deformable contact pair identified by real constant set 22   
 and contact element type 22 has been set up.                            
 Contact algorithm: Augmented Lagrange method
 Contact detection at: Gauss integration point
 Aggressive variation of contact stiffness is activated,                 
 Contact stiffness factor FKN                  1.0000    
 The resulting initial contact stiffness      0.84064E+06
 Default penetration tolerance factor FTOLN   0.10000    
 The resulting penetration tolerance          0.49962    
 Max. initial friction coefficient MU         0.15000    
 Default tangent stiffness factor FKT          1.0000    
 Default elastic slip factor SLTOL            0.10000E-01
 The resulting elastic slip                   0.46437E-01
 Update contact stiffness at each iteration
 Default Max. friction stress TAUMAX          0.10000E+21
 Average contact surface length                4.6437    
 Average contact pair depth                    4.9962    
 Default pinball region factor PINB            4.0000    
 The resulting pinball region                  19.985    
 Initial penetration will be ramped during the first load step.

 *** NOTE ***                            CP =       1.578   TIME= 08:19:30
 No contact was detected for this contact pair.                          
 ****************************************
  

 *** NOTE ***                            CP =       1.578   TIME= 08:19:30
 Deformable-deformable contact pair identified by real constant set 24   
 and contact element type 24 has been set up.                            
 Contact algorithm: Augmented Lagrange method
 Contact detection at: Gauss integration point
 Aggressive variation of contact stiffness is activated,                 
 Contact stiffness factor FKN                  10.000    
 The resulting initial contact stiffness      0.84073E+07
 Default penetration tolerance factor FTOLN   0.10000    
 The resulting penetration tolerance          0.49957    
 Max. initial friction coefficient MU         0.15000    
 Default tangent stiffness factor FKT          1.0000    
 Default elastic slip factor SLTOL            0.10000E-01
 The resulting elastic slip                   0.46088E-01
 Update contact stiffness at each iteration
 Default Max. friction stress TAUMAX          0.10000E+21
 Average contact surface length                4.6088    
 Average contact pair depth                    4.9957    
 Default pinball region factor PINB            4.0000    
 The resulting pinball region                  19.983    

 *** NOTE ***                            CP =       1.578   TIME= 08:19:30
 One of the contact searching regions contains at least 59 target        
 elements.  You may reduce the pinball radius.                           
 Initial penetration will be ramped during the first load step.

 *** NOTE ***                            CP =       1.578   TIME= 08:19:30
 No contact was detected for this contact pair.                          
 ****************************************
  

 *** NOTE ***                            CP =       1.578   TIME= 08:19:30
 Deformable-deformable contact pair identified by real constant set 26   
 and contact element type 26 has been set up.                            
 Contact algorithm: Augmented Lagrange method
 Contact detection at: Gauss integration point
 Aggressive variation of contact stiffness is activated,                 
 Contact stiffness factor FKN                  1.0000    
 The resulting initial contact stiffness      0.83870E+06
 Default penetration tolerance factor FTOLN   0.10000    
 The resulting penetration tolerance          0.50077    
 Auto stabilization damping may be applied
 Stabilization damping may be activated in the 1st load step
 Max. initial friction coefficient MU         0.15000    
 Default tangent stiffness factor FKT          1.0000    
 Default elastic slip factor SLTOL            0.10000E-01
 The resulting elastic slip                   0.45027E-01
 Update contact stiffness at each iteration
 Default Max. friction stress TAUMAX          0.10000E+21
 Average contact surface length                4.5027    
 Average contact pair depth                    5.0077    
 Default pinball region factor PINB            4.0000    
 The resulting pinball region                  20.031    

 *** NOTE ***                            CP =       1.578   TIME= 08:19:30
 One of the contact searching regions contains at least 145 target       
 elements.  You may reduce the pinball radius.                           
 Initial penetration will be ramped during the first load step.

 *** NOTE ***                            CP =       1.578   TIME= 08:19:30
 Min.  Initial gap 7.5854599 was detected between contact element 9053   
 and target element 9391.                                                
 You may move entire target surface by: x= 5.10451263, y= -0.947742459,  
 z= 5.53036499, to bring it in contact.                                  
 ****************************************
  

 *** NOTE ***                            CP =       1.578   TIME= 08:19:30
 Deformable-deformable contact pair identified by real constant set 28   
 and contact element type 28 has been set up.                            
 Contact algorithm: Augmented Lagrange method
 Contact detection at: Gauss integration point
 Aggressive variation of contact stiffness is activated,                 
 Contact stiffness factor FKN                  1.0000    
 The resulting initial contact stiffness      0.83413E+06
 Default penetration tolerance factor FTOLN   0.10000    
 The resulting penetration tolerance          0.50352    
 Max. initial friction coefficient MU         0.15000    
 Default tangent stiffness factor FKT          1.0000    
 Default elastic slip factor SLTOL            0.10000E-01
 The resulting elastic slip                   0.43585E-01
 Update contact stiffness at each iteration
 Default Max. friction stress TAUMAX          0.10000E+21
 Average contact surface length                4.3585    
 Average contact pair depth                    5.0352    
 Default pinball region factor PINB            4.0000    
 The resulting pinball region                  20.141    

 *** NOTE ***                            CP =       1.578   TIME= 08:19:30
 One of the contact searching regions contains at least 104 target       
 elements.  You may reduce the pinball radius.                           
 Initial penetration will be ramped during the first load step.

 *** NOTE ***                            CP =       1.578   TIME= 08:19:30
 Min.  Initial gap 7.09030292 was detected between contact element 9534  
 and target element 9823.                                                
 You may move entire target surface by: x= 4.75317324, y= -1.23109488,   
 z= 5.11508994, to bring it in contact.                                  
 ****************************************
  

 *** WARNING ***                         CP =       1.578   TIME= 08:19:30
 Maximum friction coefficient 0.3 is defined in the model.  Switch to    
 the unsymmetric solver (NROP,UNSYM) instead if convergence difficulty   
 is encountered.                                                         

 *** WARNING ***                         CP =       1.578   TIME= 08:19:30
 Overconstraint may occur for Lagrange multiplier or MPC based contact   
 algorithm.                                                              
 The reasons for possible overconstraint are:                            

 *** WARNING ***                         CP =       1.578   TIME= 08:19:30
 Boundary conditions, coupling, and/or constraint equations have been    
 applied on certain contact nodes (for example 11546).                   
 ****************************************
  
  

 *** NOTE ***                            CP =       1.578   TIME= 08:19:30
 Internal nodes from 11621 to 11627 are created.                         
 4 internal nodes are used for handling degrees of freedom on pilot      
 nodes of rigid target surfaces.                                         
 3 internal nodes are used for non-contact elements with mixed           
 formulation.                                                            

  
  
     D I S T R I B U T E D   D O M A I N   D E C O M P O S E R
  
  ...Number of elements: 9675
  ...Number of nodes:    11627
  ...Decompose to 4 CPU domains
  ...Element load balance ratio =     1.095


                      L O A D   S T E P   O P T I O N S

   LOAD STEP NUMBER. . . . . . . . . . . . . . . .     1
   TIME AT END OF THE LOAD STEP. . . . . . . . . .  1.0000    
   AUTOMATIC TIME STEPPING . . . . . . . . . . . .    ON
      STARTING TIME STEP SIZE. . . . . . . . . . . 0.10000E-03
      MINIMUM TIME STEP SIZE . . . . . . . . . . . 0.10000E-05
      MAXIMUM TIME STEP SIZE . . . . . . . . . . . 0.10000    
   MAXIMUM NUMBER OF EQUILIBRIUM ITERATIONS. . . .    15
   STEP CHANGE BOUNDARY CONDITIONS . . . . . . . .    NO
   STRESS-STIFFENING . . . . . . . . . . . . . . .    ON
   TERMINATE ANALYSIS IF NOT CONVERGED . . . . . .YES (EXIT)  
   CONVERGENCE CONTROLS
      LABEL   REFERENCE    TOLERANCE  NORM     MINREF
       F       0.000       0.5000E-02   2     0.1000E-01
   PRINT OUTPUT CONTROLS . . . . . . . . . . . . .NO PRINTOUT
   DATABASE OUTPUT CONTROLS
      ITEM     FREQUENCY   COMPONENT
       ALL       NONE               
      NSOL        -50               
      RSOL        -50               
      NLOA        -50               
      STRS        -50               
      EPEL        -50               
      EPPL        -50               
      MISC        -50       _ALLCONTACTS
      MISC        -50               


 SOLUTION MONITORING INFO IS WRITTEN TO FILE= file.mntr                                                                                                                                                                                                                                                           
 *WARNING*: Node 414 is applied on different contact pairs (real ID 4 &  
 5) as the pilot node.  These two pairs will be merged.                  
 *WARNING*: Node 60 has been used on different contact pairs (real ID 4  
 & 5).  These two pairs will be merged.  Please check the model          
 carefully.                                                              

 *** NOTE ***                            CP =       1.891   TIME= 08:19:30
 Rigid target surface identified by real constant set 4.  The degrees    
 of freedom of the rigid surface are driven by the pilot node 414.       
 Internal MPC will be built.                                             
 Boundary conditions can be applied on any target node.
 This pair will be merged with other pair defined by real constant set   
 5.                                                                      
 The used degrees of freedom set is  UX   UY   UZ   ROTX ROTY ROTZ
 ****************************************
  

 *** WARNING ***                         CP =       1.891   TIME= 08:19:30
 Node 1318 connects both contact element 9430 and target element 9678.   
 Please check the model carefully.                                       

 *** NOTE ***                            CP =       1.891   TIME= 08:19:30
 Rigid-deformable contact pair identified by real constant set 5 and     
 contact element type 5 has been set up.  The degrees of freedom of the  
 rigid surface are driven by the pilot node 414.                         
 Boundary conditions can be applied on any target node.
 This pair will be merged with other pair defined by real constant set   
 4.                                                                      
 Contact algorithm: Augmented Lagrange method
 Contact detection at: Gauss integration point
 Aggressive variation of contact stiffness is activated,                 
 Contact stiffness factor FKN                  1.0000    
 The resulting initial contact stiffness      0.82340E+06
 Default penetration tolerance factor FTOLN   0.10000    
 The resulting penetration tolerance          0.51008    
 Max. initial friction coefficient MU         0.30000    
 Default tangent stiffness factor FKT          1.0000    
 Default elastic slip factor SLTOL            0.10000E-01
 The resulting elastic slip                   0.51112E-01
 Update contact stiffness at each iteration
 Default Max. friction stress TAUMAX          0.10000E+21
 Average contact surface length                5.1112    
 Average contact pair depth                    5.1008    
 Default pinball region factor PINB            3.0000    
 The resulting pinball region                  15.302    

 *** NOTE ***                            CP =       1.891   TIME= 08:19:30
 One of the contact searching regions contains at least 73 target        
 elements.  You may reduce the pinball radius.                           
 Auto contact offset used to close gap        0.83585E-01
 Initial penetration is excluded.

 *** NOTE ***                            CP =       1.891   TIME= 08:19:30
 Min.  Initial gap 8.275728953E-02 was detected between contact element  
 2383 and target element 3051.                                           
 The gap is closed due to initial settings.                              
 ****************************************
  
 MAXIMUM NUMBER OF EQUILIBRIUM ITERATIONS HAS BEEN MODIFIED              
  TO BE, NEQIT = 26, BY SOLUTION CONTROL LOGIC.                          

  
 The FEA model contains 0 external CE equations and 18 internal CE       
 equations.                                                              
  
 *************************************************
  SUMMARY FOR CONTACT PAIR IDENTIFIED BY REAL CONSTANT SET           5
 Max.  Penetration of 0 has been detected between contact element 2383   
 and target element 3051.                                                
 For total 856 contact elements, there are 1 elements are in contact.    
 There are 1 elements are in sticking.                                   
 Contacting area 6.48248185.                                             
 Max.  Pinball distance 15.302395.                                       
 One of the contact searching regions contains at least 37 target        
 elements.                                                               
 Max.  Pressure/force 3.715235963E-09.                                   
 Max.  Normal stiffness 818401.617.                                      
 Min.  Normal stiffness 818401.617.                                      
 Max.  Tangential stiffness 18376.6966.                                  
 Min.  Tangential stiffness 18376.6966.                                  
 *************************************************


                         ***********  PRECISE MASS SUMMARY  ***********

   TOTAL RIGID BODY MASS MATRIX ABOUT ORIGIN
               Translational mass               |   Coupled translational/rotational mass
        0.46304E-02  -0.33999E-19   0.20996E-35 |    0.24576E-18   0.74578      -0.53055E-02
       -0.25446E-19   0.46304E-02  -0.28673E-35 |   -0.74578      -0.18394E-18   0.16471E-02
        0.32496E-35  -0.49507E-35   0.46304E-02 |    0.53055E-02  -0.16471E-02   0.43500E-49
     ------------------------------------------ | ------------------------------------------
                                                |         Rotational mass (inertia)
                                                |     217.28      -0.65323E-02  -0.61646E-01
                                                |   -0.65323E-02    217.27      -0.82282    
                                                |   -0.61646E-01  -0.82282        11.498    

   TOTAL MASS = 0.46304E-02
     The mass principal axes coincide with the global Cartesian axes

   CENTER OF MASS (X,Y,Z)=   0.35572        1.1458        161.06    

   TOTAL INERTIA ABOUT CENTER OF MASS
         97.157      -0.46451E-02   0.20364    
       -0.46451E-02    97.156       0.31697E-01
        0.20364       0.31697E-01    11.491    

   PRINCIPAL INERTIAS =    97.161        97.152        11.490    
   ORIENTATION VECTORS OF THE INERTIA PRINCIPAL AXES IN GLOBAL CARTESIAN
     ( 0.781,-0.624, 0.002) ( 0.624, 0.781, 0.002) (-0.002,-0.000, 1.000) 


  *** MASS SUMMARY BY ELEMENT TYPE ***

  TYPE      MASS
     1  0.160537E-02
     2  0.156686E-02
     3  0.145811E-02

 Range of element maximum matrix coefficients in global coordinates
 Maximum = 5.119651751E+09 at element 3595.                              
 Minimum = 9.981190724E-04 at element 9915.                              

 *** WARNING ***                         CP =       2.703   TIME= 08:19:31
 Coefficient ratio exceeds 1.0e8 - Check results.                        

   *** ELEMENT MATRIX FORMULATION TIMES
  TYPE    NUMBER   ENAME      TOTAL CP  AVE CP

     1         1  MASS21        0.000   0.000000
     2         1  MASS21        0.000   0.000000
     3      1730  SOLID186      0.078   0.000045
     4       127  TARGE170      0.000   0.000000
     5       856  CONTA174      0.000   0.000000
     6       126  TARGE170      0.000   0.000000
     7       117  TARGE170      0.000   0.000000
     8      1312  CONTA174      0.078   0.000060
     9       116  TARGE170      0.000   0.000000
    10       136  CONTA174      0.000   0.000000
    11       248  TARGE170      0.000   0.000000
    12       184  CONTA174      0.000   0.000000
    13       288  TARGE170      0.000   0.000000
    14       248  CONTA174      0.000   0.000000
    15       296  TARGE170      0.000   0.000000
    16       288  CONTA174      0.016   0.000054
    17       304  TARGE170      0.000   0.000000
    18       296  CONTA174      0.000   0.000000
    19       304  TARGE170      0.000   0.000000
    20       304  CONTA174      0.000   0.000000
    21       304  TARGE170      0.000   0.000000
    22       304  CONTA174      0.000   0.000000
    23       272  TARGE170      0.000   0.000000
    24       304  CONTA174      0.016   0.000051
    25       240  TARGE170      0.000   0.000000
    26       272  CONTA174      0.000   0.000000
    27       192  TARGE170      0.000   0.000000
    28       240  CONTA174      0.031   0.000130
    29       192  TARGE170      0.000   0.000000
    30         1  MPC184        0.000   0.000000
    31        72  COMBIN14      0.000   0.000000
 Time at end of element matrix formulation CP = 2.703125.                

 ALL CURRENT ANSYS DATA WRITTEN TO FILE NAME= file.rdb
  FOR POSSIBLE RESUME FROM THIS POINT
     FORCE CONVERGENCE VALUE  = 0.1673E-06  CRITERION= 0.5000E-04
    Writing NEWTON-RAPHSON residual forces to file: file.nr001

 DISTRIBUTED SPARSE MATRIX DIRECT SOLVER.
  Number of equations =       32256,    Maximum wavefront =    372

  Local memory allocated for solver              =     54.825 MB
  Local memory required for in-core solution     =     36.874 MB
  Local memory required for out-of-core solution =     30.073 MB

  Total memory allocated for solver              =    185.832 MB
  Total memory required for in-core solution     =    115.654 MB
  Total memory required for out-of-core solution =     80.064 MB

 *** NOTE ***                            CP =       2.750   TIME= 08:19:31
 The Distributed Sparse Matrix Solver is currently running in the        
 in-core memory mode.  This memory mode uses the most amount of memory   
 in order to avoid using the hard drive as much as possible, which most  
 often results in the fastest solution time.  This mode is recommended   
 if enough physical memory is present to accommodate all of the solver   
 data.                                                                   

 *** WARNING ***                         CP =       2.750   TIME= 08:19:31
 Pivoting has been activated for the Distributed Sparse Matrix Solver .  
 The memory required may greatly exceed the predicted amount.  In that   
 event, use the DSPOPTION command to change the memory mode and/or       
 memory size used by the Distributed Sparse Matrix Solver.               
 curEqn=   8163  totEqn=   8163 Job CP sec=      2.781
      Factor Done= 100% Factor Wall sec=      0.027 rate=    8616.1 Mflops
 Distributed sparse solver maximum pivot= 127571103 at node 414 ROTY.    
 Distributed sparse solver minimum pivot= 32.8845913 at node 7105 UY.    
 Distributed sparse solver minimum pivot in absolute value= 32.8845913   
 at node 7105 UY.                                                        
    EQUIL ITER   1 COMPLETED.  NEW TRIANG MATRIX.  MAX DOF INC= -0.1420E-01
     LINE SEARCH PARAMETER =  0.9780     SCALED MAX DOF INC = -0.1389E-01
     FORCE CONVERGENCE VALUE  =  5.477      CRITERION= 0.2828E-02
    Writing NEWTON-RAPHSON residual forces to file: file.nr002
    EQUIL ITER   2 COMPLETED.  NEW TRIANG MATRIX.  MAX DOF INC=  0.1384E-01
     LINE SEARCH PARAMETER =  0.5000E-01 SCALED MAX DOF INC =  0.6918E-03
     FORCE CONVERGENCE VALUE  =  255.3      CRITERION= 0.2686E-02
    Writing NEWTON-RAPHSON residual forces to file: file.nr003
    EQUIL ITER   3 COMPLETED.  NEW TRIANG MATRIX.  MAX DOF INC= -0.1467E-01
     LINE SEARCH PARAMETER =  0.5000E-01 SCALED MAX DOF INC = -0.7333E-03
     FORCE CONVERGENCE VALUE  =  21.51      CRITERION= 0.1549E-01
    Writing NEWTON-RAPHSON residual forces to file: file.nr004
    EQUIL ITER   4 COMPLETED.  NEW TRIANG MATRIX.  MAX DOF INC= -0.1778E-02
     LINE SEARCH PARAMETER =  0.9297     SCALED MAX DOF INC = -0.1653E-02
     FORCE CONVERGENCE VALUE  =  2.399      CRITERION= 0.2213E-02
    Writing NEWTON-RAPHSON residual forces to file: file.nr005
    EQUIL ITER   5 COMPLETED.  NEW TRIANG MATRIX.  MAX DOF INC= -0.3886E-02
     LINE SEARCH PARAMETER =   1.000     SCALED MAX DOF INC = -0.3886E-02
     FORCE CONVERGENCE VALUE  =  2.012      CRITERION= 0.1780E-02
    Writing NEWTON-RAPHSON residual forces to file: file.nr001
    EQUIL ITER   6 COMPLETED.  NEW TRIANG MATRIX.  MAX DOF INC= -0.1208E-01
     LINE SEARCH PARAMETER =   1.000     SCALED MAX DOF INC = -0.1208E-01
     FORCE CONVERGENCE VALUE  = 0.8663      CRITERION= 0.6851E-03
    Writing NEWTON-RAPHSON residual forces to file: file.nr002
    EQUIL ITER   7 COMPLETED.  NEW TRIANG MATRIX.  MAX DOF INC= -0.1723E-01
     LINE SEARCH PARAMETER =   1.000     SCALED MAX DOF INC = -0.1723E-01
     FORCE CONVERGENCE VALUE  =  1.583      CRITERION= 0.1568E-03
    Writing NEWTON-RAPHSON residual forces to file: file.nr003
    EQUIL ITER   8 COMPLETED.  NEW TRIANG MATRIX.  MAX DOF INC=  0.1466E-01
     LINE SEARCH PARAMETER =  0.9026     SCALED MAX DOF INC =  0.1323E-01
     FORCE CONVERGENCE VALUE  = 0.4198      CRITERION= 0.5000E-04
    Writing NEWTON-RAPHSON residual forces to file: file.nr004
    EQUIL ITER   9 COMPLETED.  NEW TRIANG MATRIX.  MAX DOF INC=  0.5167E-02
     LINE SEARCH PARAMETER =  0.9680     SCALED MAX DOF INC =  0.5001E-02
     FORCE CONVERGENCE VALUE  = 0.5141E-01  CRITERION= 0.5000E-04
    Writing NEWTON-RAPHSON residual forces to file: file.nr005
    EQUIL ITER  10 COMPLETED.  NEW TRIANG MATRIX.  MAX DOF INC=  0.2495E-02
     LINE SEARCH PARAMETER =  0.9624     SCALED MAX DOF INC =  0.2401E-02
     FORCE CONVERGENCE VALUE  = 0.1838E-01  CRITERION= 0.5000E-04
    Writing NEWTON-RAPHSON residual forces to file: file.nr001
    EQUIL ITER  11 COMPLETED.  NEW TRIANG MATRIX.  MAX DOF INC=  0.6425E-03
     LINE SEARCH PARAMETER =  0.9188     SCALED MAX DOF INC =  0.5903E-03
     FORCE CONVERGENCE VALUE  = 0.8885E-02  CRITERION= 0.5000E-04
    Writing NEWTON-RAPHSON residual forces to file: file.nr002
    EQUIL ITER  12 COMPLETED.  NEW TRIANG MATRIX.  MAX DOF INC=  0.2646E-03
     LINE SEARCH PARAMETER =   1.000     SCALED MAX DOF INC =  0.2646E-03
     FORCE CONVERGENCE VALUE  = 0.2495E-03  CRITERION= 0.5000E-04
    Writing NEWTON-RAPHSON residual forces to file: file.nr003
    EQUIL ITER  13 COMPLETED.  NEW TRIANG MATRIX.  MAX DOF INC=  0.7029E-04
     LINE SEARCH PARAMETER =  0.9230     SCALED MAX DOF INC =  0.6488E-04
     FORCE CONVERGENCE VALUE  = 0.6193E-04  CRITERION= 0.5000E-04
    Writing NEWTON-RAPHSON residual forces to file: file.nr004
    EQUIL ITER  14 COMPLETED.  NEW TRIANG MATRIX.  MAX DOF INC=  0.4192E-04
     LINE SEARCH PARAMETER =   1.000     SCALED MAX DOF INC =  0.4192E-04
     FORCE CONVERGENCE VALUE  = 0.2191E-04  CRITERION= 0.5000E-04 <<< CONVERGED
     The calculated reference FORCE CONVERGENCE VALUE  =  0.7001E-02
      is less than MINREF (which can be modified on the CNVTOL command).
    Writing NEWTON-RAPHSON residual forces to file: file.nr005
    >>> SOLUTION CONVERGED AFTER EQUILIBRIUM ITERATION  14

   *** ELEMENT RESULT CALCULATION TIMES
  TYPE    NUMBER   ENAME      TOTAL CP  AVE CP

     1         1  MASS21        0.000   0.000000
     2         1  MASS21        0.000   0.000000
     3      1730  SOLID186      0.000   0.000000
     5       443  CONTA174      0.000   0.000000
     8       654  CONTA174      0.000   0.000000
    10       129  CONTA174      0.016   0.000121
    26       217  CONTA174      0.000   0.000000
    28        98  CONTA174      0.000   0.000000
    30         1  MPC184        0.000   0.000000
    31        72  COMBIN14      0.000   0.000000

   *** NODAL LOAD CALCULATION TIMES
  TYPE    NUMBER   ENAME      TOTAL CP  AVE CP

     1         1  MASS21        0.000   0.000000
     2         1  MASS21        0.000   0.000000
     3      1730  SOLID186      0.000   0.000000
     5       443  CONTA174      0.000   0.000000
     8       654  CONTA174      0.000   0.000000
    10       129  CONTA174      0.000   0.000000
    26       217  CONTA174      0.000   0.000000
    28        98  CONTA174      0.000   0.000000
    30         1  MPC184        0.000   0.000000
    31        72  COMBIN14      0.000   0.000000
 *** LOAD STEP     1   SUBSTEP     1  COMPLETED.    CUM ITER =     14
 *** TIME =  0.100000E-03     TIME INC =  0.100000E-03
 *** AUTO STEP TIME:  NEXT TIME INC = 0.10000E-03  UNCHANGED

     FORCE CONVERGENCE VALUE  =  2.393      CRITERION= 0.7298E-04
    Writing NEWTON-RAPHSON residual forces to file: file.nr001
    EQUIL ITER   1 COMPLETED.  NEW TRIANG MATRIX.  MAX DOF INC=  0.4801E-02
     LINE SEARCH PARAMETER =   1.000     SCALED MAX DOF INC =  0.4801E-02
     FORCE CONVERGENCE VALUE  = 0.4741E-01  CRITERION= 0.8385E-04
    Writing NEWTON-RAPHSON residual forces to file: file.nr002
    EQUIL ITER   2 COMPLETED.  NEW TRIANG MATRIX.  MAX DOF INC=  0.1765E-02
     LINE SEARCH PARAMETER =  0.8979     SCALED MAX DOF INC =  0.1585E-02
     FORCE CONVERGENCE VALUE  = 0.2367E-01  CRITERION= 0.8241E-04
    Writing NEWTON-RAPHSON residual forces to file: file.nr003
    EQUIL ITER   3 COMPLETED.  NEW TRIANG MATRIX.  MAX DOF INC=  0.5015E-03
     LINE SEARCH PARAMETER =  0.9429     SCALED MAX DOF INC =  0.4728E-03
     FORCE CONVERGENCE VALUE  = 0.3568E-02  CRITERION= 0.8244E-04
    Writing NEWTON-RAPHSON residual forces to file: file.nr004
    EQUIL ITER   4 COMPLETED.  NEW TRIANG MATRIX.  MAX DOF INC= -0.1062E-03
     LINE SEARCH PARAMETER =  0.9252     SCALED MAX DOF INC = -0.9829E-04
     FORCE CONVERGENCE VALUE  = 0.6096E-03  CRITERION= 0.8237E-04
    Writing NEWTON-RAPHSON residual forces to file: file.nr005
    EQUIL ITER   5 COMPLETED.  NEW TRIANG MATRIX.  MAX DOF INC=  0.2380E-04
     LINE SEARCH PARAMETER =  0.9689     SCALED MAX DOF INC =  0.2306E-04
     FORCE CONVERGENCE VALUE  = 0.2547E-04  CRITERION= 0.8236E-04 <<< CONVERGED
    Writing NEWTON-RAPHSON residual forces to file: file.nr001
    >>> SOLUTION CONVERGED AFTER EQUILIBRIUM ITERATION   5
 *** LOAD STEP     1   SUBSTEP     2  COMPLETED.    CUM ITER =     19
 *** TIME =  0.200000E-03     TIME INC =  0.100000E-03
 *** AUTO TIME STEP:  NEXT TIME INC = 0.15000E-03  INCREASED (FACTOR = 1.5000)

     FORCE CONVERGENCE VALUE  =  2.310      CRITERION= 0.1538E-03
    Writing NEWTON-RAPHSON residual forces to file: file.nr002
    EQUIL ITER   1 COMPLETED.  NEW TRIANG MATRIX.  MAX DOF INC=  0.6307E-02
     LINE SEARCH PARAMETER =   1.000     SCALED MAX DOF INC =  0.6307E-02
     FORCE CONVERGENCE VALUE  = 0.1739      CRITERION= 0.1621E-03
    Writing NEWTON-RAPHSON residual forces to file: file.nr003
    EQUIL ITER   2 COMPLETED.  NEW TRIANG MATRIX.  MAX DOF INC= -0.1148E-02
     LINE SEARCH PARAMETER =   1.000     SCALED MAX DOF INC = -0.1148E-02
     FORCE CONVERGENCE VALUE  = 0.3034E-01  CRITERION= 0.1598E-03
    Writing NEWTON-RAPHSON residual forces to file: file.nr004
    EQUIL ITER   3 COMPLETED.  NEW TRIANG MATRIX.  MAX DOF INC= -0.1225E-02
     LINE SEARCH PARAMETER =  0.9984     SCALED MAX DOF INC = -0.1223E-02
     FORCE CONVERGENCE VALUE  = 0.3920E-01  CRITERION= 0.1597E-03
    Writing NEWTON-RAPHSON residual forces to file: file.nr005
    EQUIL ITER   4 COMPLETED.  NEW TRIANG MATRIX.  MAX DOF INC= -0.3159E-03
     LINE SEARCH PARAMETER =   1.000     SCALED MAX DOF INC = -0.3159E-03
     FORCE CONVERGENCE VALUE  = 0.2654E-02  CRITERION= 0.1596E-03
    Writing NEWTON-RAPHSON residual forces to file: file.nr001
    EQUIL ITER   5 COMPLETED.  NEW TRIANG MATRIX.  MAX DOF INC= -0.1698E-03
     LINE SEARCH PARAMETER =   1.000     SCALED MAX DOF INC = -0.1698E-03
     FORCE CONVERGENCE VALUE  = 0.7446E-03  CRITERION= 0.1596E-03
    Writing NEWTON-RAPHSON residual forces to file: file.nr002
    EQUIL ITER   6 COMPLETED.  NEW TRIANG MATRIX.  MAX DOF INC= -0.6872E-05
     LINE SEARCH PARAMETER =  0.9427     SCALED MAX DOF INC = -0.6478E-05
     FORCE CONVERGENCE VALUE  = 0.4379E-04  CRITERION= 0.1596E-03 <<< CONVERGED
    Writing NEWTON-RAPHSON residual forces to file: file.nr003
    >>> SOLUTION CONVERGED AFTER EQUILIBRIUM ITERATION   6
 *** LOAD STEP     1   SUBSTEP     3  COMPLETED.    CUM ITER =     25
 *** TIME =  0.350000E-03     TIME INC =  0.150000E-03
 *** AUTO TIME STEP:  NEXT TIME INC = 0.22500E-03  INCREASED (FACTOR = 1.5000)

     FORCE CONVERGENCE VALUE  =  1.503      CRITERION= 0.2762E-03
    Writing NEWTON-RAPHSON residual forces to file: file.nr004
    EQUIL ITER   1 COMPLETED.  NEW TRIANG MATRIX.  MAX DOF INC=  0.6966E-02
     LINE SEARCH PARAMETER =  0.9922     SCALED MAX DOF INC =  0.6911E-02
     FORCE CONVERGENCE VALUE  = 0.1658      CRITERION= 0.2965E-03
    Writing NEWTON-RAPHSON residual forces to file: file.nr005
    EQUIL ITER   2 COMPLETED.  NEW TRIANG MATRIX.  MAX DOF INC=  0.2691E-02
     LINE SEARCH PARAMETER =   1.000     SCALED MAX DOF INC =  0.2691E-02
     FORCE CONVERGENCE VALUE  = 0.9369E-01  CRITERION= 0.2956E-03
    Writing NEWTON-RAPHSON residual forces to file: file.nr001
    EQUIL ITER   3 COMPLETED.  NEW TRIANG MATRIX.  MAX DOF INC=  0.1538E-02
     LINE SEARCH PARAMETER =   1.000     SCALED MAX DOF INC =  0.1538E-02
     FORCE CONVERGENCE VALUE  = 0.5888E-01  CRITERION= 0.2956E-03
    Writing NEWTON-RAPHSON residual forces to file: file.nr002
    EQUIL ITER   4 COMPLETED.  NEW TRIANG MATRIX.  MAX DOF INC=  0.1094E-02
     LINE SEARCH PARAMETER =   1.000     SCALED MAX DOF INC =  0.1094E-02
     FORCE CONVERGENCE VALUE  = 0.3056E-01  CRITERION= 0.2956E-03
    Writing NEWTON-RAPHSON residual forces to file: file.nr003
    EQUIL ITER   5 COMPLETED.  NEW TRIANG MATRIX.  MAX DOF INC=  0.6197E-03
     LINE SEARCH PARAMETER =   1.000     SCALED MAX DOF INC =  0.6197E-03
     FORCE CONVERGENCE VALUE  = 0.9926E-02  CRITERION= 0.2956E-03
    Writing NEWTON-RAPHSON residual forces to file: file.nr004
    EQUIL ITER   6 COMPLETED.  NEW TRIANG MATRIX.  MAX DOF INC=  0.2329E-03
     LINE SEARCH PARAMETER =   1.000     SCALED MAX DOF INC =  0.2329E-03
     FORCE CONVERGENCE VALUE  = 0.1395E-02  CRITERION= 0.2956E-03
    Writing NEWTON-RAPHSON residual forces to file: file.nr005
    EQUIL ITER   7 COMPLETED.  NEW TRIANG MATRIX.  MAX DOF INC=  0.3599E-04
     LINE SEARCH PARAMETER =   1.000     SCALED MAX DOF INC =  0.3599E-04
     FORCE CONVERGENCE VALUE  = 0.3224E-04  CRITERION= 0.2956E-03 <<< CONVERGED
    Writing NEWTON-RAPHSON residual forces to file: file.nr001
    >>> SOLUTION CONVERGED AFTER EQUILIBRIUM ITERATION   7
 *** LOAD STEP     1   SUBSTEP     4  COMPLETED.    CUM ITER =     32
 *** TIME =  0.575000E-03     TIME INC =  0.225000E-03
 *** AUTO TIME STEP:  NEXT TIME INC = 0.33750E-03  INCREASED (FACTOR = 1.5000)

     FORCE CONVERGENCE VALUE  =  3.234      CRITERION= 0.5310E-03
    Writing NEWTON-RAPHSON residual forces to file: file.nr002
    EQUIL ITER   1 COMPLETED.  NEW TRIANG MATRIX.  MAX DOF INC=  0.5237E-02
     LINE SEARCH PARAMETER =   1.000     SCALED MAX DOF INC =  0.5237E-02
     FORCE CONVERGENCE VALUE  = 0.1130      CRITERION= 0.5606E-03
    Writing NEWTON-RAPHSON residual forces to file: file.nr003
    EQUIL ITER   2 COMPLETED.  NEW TRIANG MATRIX.  MAX DOF INC=  0.9640E-02
     LINE SEARCH PARAMETER =  0.6115     SCALED MAX DOF INC =  0.5895E-02
     FORCE CONVERGENCE VALUE  = 0.8037      CRITERION= 0.5461E-03
    Writing NEWTON-RAPHSON residual forces to file: file.nr004
    EQUIL ITER   3 COMPLETED.  NEW TRIANG MATRIX.  MAX DOF INC=  0.1658E-02
     LINE SEARCH PARAMETER =   1.000     SCALED MAX DOF INC =  0.1658E-02
     FORCE CONVERGENCE VALUE  = 0.4017E-01  CRITERION= 0.5347E-03
    Writing NEWTON-RAPHSON residual forces to file: file.nr005
    EQUIL ITER   4 COMPLETED.  NEW TRIANG MATRIX.  MAX DOF INC=  0.7771E-02
     LINE SEARCH PARAMETER =  0.4594     SCALED MAX DOF INC =  0.3570E-02
     FORCE CONVERGENCE VALUE  = 0.3506      CRITERION= 0.5337E-03
    Writing NEWTON-RAPHSON residual forces to file: file.nr001
    EQUIL ITER   5 COMPLETED.  NEW TRIANG MATRIX.  MAX DOF INC=  0.1580E-02
     LINE SEARCH PARAMETER =   1.000     SCALED MAX DOF INC =  0.1580E-02
     FORCE CONVERGENCE VALUE  = 0.6225E-01  CRITERION= 0.5327E-03
    Writing NEWTON-RAPHSON residual forces to file: file.nr002
    EQUIL ITER   6 COMPLETED.  NEW TRIANG MATRIX.  MAX DOF INC=  0.3731E-02
     LINE SEARCH PARAMETER =  0.5889     SCALED MAX DOF INC =  0.2197E-02
     FORCE CONVERGENCE VALUE  = 0.1504      CRITERION= 0.5325E-03
    Writing NEWTON-RAPHSON residual forces to file: file.nr003
    EQUIL ITER   7 COMPLETED.  NEW TRIANG MATRIX.  MAX DOF INC=  0.1554E-02
     LINE SEARCH PARAMETER =   1.000     SCALED MAX DOF INC =  0.1554E-02
     FORCE CONVERGENCE VALUE  = 0.6241E-01  CRITERION= 0.5325E-03
    Writing NEWTON-RAPHSON residual forces to file: file.nr004
    EQUIL ITER   8 COMPLETED.  NEW TRIANG MATRIX.  MAX DOF INC=  0.1601E-02
     LINE SEARCH PARAMETER =   1.000     SCALED MAX DOF INC =  0.1601E-02
     FORCE CONVERGENCE VALUE  = 0.6669E-01  CRITERION= 0.5325E-03
    Writing NEWTON-RAPHSON residual forces to file: file.nr005
    EQUIL ITER   9 COMPLETED.  NEW TRIANG MATRIX.  MAX DOF INC=  0.6751E-03
     LINE SEARCH PARAMETER =   1.000     SCALED MAX DOF INC =  0.6751E-03
     FORCE CONVERGENCE VALUE  = 0.1186E-01  CRITERION= 0.5325E-03
    Writing NEWTON-RAPHSON residual forces to file: file.nr001
    EQUIL ITER  10 COMPLETED.  NEW TRIANG MATRIX.  MAX DOF INC=  0.4806E-03
     LINE SEARCH PARAMETER =   1.000     SCALED MAX DOF INC =  0.4806E-03
     FORCE CONVERGENCE VALUE  = 0.5978E-02  CRITERION= 0.5325E-03
    Writing NEWTON-RAPHSON residual forces to file: file.nr002
    EQUIL ITER  11 COMPLETED.  NEW TRIANG MATRIX.  MAX DOF INC=  0.7154E-04
     LINE SEARCH PARAMETER =   1.000     SCALED MAX DOF INC =  0.7154E-04
     FORCE CONVERGENCE VALUE  = 0.1315E-03  CRITERION= 0.5325E-03 <<< CONVERGED
    Writing NEWTON-RAPHSON residual forces to file: file.nr003
    >>> SOLUTION CONVERGED AFTER EQUILIBRIUM ITERATION  11
 *** LOAD STEP     1   SUBSTEP     5  COMPLETED.    CUM ITER =     43
 *** TIME =  0.912500E-03     TIME INC =  0.337500E-03
 *** AUTO STEP TIME:  NEXT TIME INC = 0.33750E-03  UNCHANGED

     FORCE CONVERGENCE VALUE  =  35.53      CRITERION= 0.3430E-02
    Writing NEWTON-RAPHSON residual forces to file: file.nr004
    EQUIL ITER   1 COMPLETED.  NEW TRIANG MATRIX.  MAX DOF INC=  0.1344E-01
     LINE SEARCH PARAMETER =  0.8229     SCALED MAX DOF INC =  0.1106E-01
     FORCE CONVERGENCE VALUE  =  6.664      CRITERION= 0.3210E-02
    Writing NEWTON-RAPHSON residual forces to file: file.nr005
    EQUIL ITER   2 COMPLETED.  NEW TRIANG MATRIX.  MAX DOF INC=  0.4798E-02
     LINE SEARCH PARAMETER =   1.000     SCALED MAX DOF INC =  0.4798E-02
     FORCE CONVERGENCE VALUE  = 0.4790      CRITERION= 0.2519E-02
    Writing NEWTON-RAPHSON residual forces to file: file.nr001
    EQUIL ITER   3 COMPLETED.  NEW TRIANG MATRIX.  MAX DOF INC=  0.2767E-01
     LINE SEARCH PARAMETER =  0.4682     SCALED MAX DOF INC =  0.1295E-01
     FORCE CONVERGENCE VALUE  =  4.693      CRITERION= 0.2354E-02
    Writing NEWTON-RAPHSON residual forces to file: file.nr002
    EQUIL ITER   4 COMPLETED.  NEW TRIANG MATRIX.  MAX DOF INC=  0.1749E-02
     LINE SEARCH PARAMETER =   1.000     SCALED MAX DOF INC =  0.1749E-02
     FORCE CONVERGENCE VALUE  = 0.2783      CRITERION= 0.1946E-02
    Writing NEWTON-RAPHSON residual forces to file: file.nr003
    EQUIL ITER   5 COMPLETED.  NEW TRIANG MATRIX.  MAX DOF INC=  0.1778E-01
     LINE SEARCH PARAMETER =  0.6692     SCALED MAX DOF INC =  0.1190E-01
     FORCE CONVERGENCE VALUE  =  3.763      CRITERION= 0.1799E-02
    Writing NEWTON-RAPHSON residual forces to file: file.nr004
    EQUIL ITER   6 COMPLETED.  NEW TRIANG MATRIX.  MAX DOF INC=  0.1250E-02
     LINE SEARCH PARAMETER =   1.000     SCALED MAX DOF INC =  0.1250E-02
     FORCE CONVERGENCE VALUE  = 0.1532      CRITERION= 0.1546E-02
    Writing NEWTON-RAPHSON residual forces to file: file.nr005
    EQUIL ITER   7 COMPLETED.  NEW TRIANG MATRIX.  MAX DOF INC= -0.2985E-02
     LINE SEARCH PARAMETER =   1.000     SCALED MAX DOF INC = -0.2985E-02
     FORCE CONVERGENCE VALUE  = 0.1613      CRITERION= 0.1362E-02
    Writing NEWTON-RAPHSON residual forces to file: file.nr001
    EQUIL ITER   8 COMPLETED.  NEW TRIANG MATRIX.  MAX DOF INC=  0.4632E-02
     LINE SEARCH PARAMETER =   1.000     SCALED MAX DOF INC =  0.4632E-02
     FORCE CONVERGENCE VALUE  = 0.6520      CRITERION= 0.1223E-02
    Writing NEWTON-RAPHSON residual forces to file: file.nr002
    EQUIL ITER   9 COMPLETED.  NEW TRIANG MATRIX.  MAX DOF INC=  0.1287E-02
     LINE SEARCH PARAMETER =   1.000     SCALED MAX DOF INC =  0.1287E-02
     FORCE CONVERGENCE VALUE  = 0.7065E-01  CRITERION= 0.1118E-02
    Writing NEWTON-RAPHSON residual forces to file: file.nr003
    EQUIL ITER  10 COMPLETED.  NEW TRIANG MATRIX.  MAX DOF INC= -0.8489E-02
     LINE SEARCH PARAMETER =  0.6689     SCALED MAX DOF INC = -0.5678E-02
     FORCE CONVERGENCE VALUE  = 0.8556      CRITERION= 0.1079E-02
    Writing NEWTON-RAPHSON residual forces to file: file.nr004
    EQUIL ITER  11 COMPLETED.  NEW TRIANG MATRIX.  MAX DOF INC=  0.8481E-03
     LINE SEARCH PARAMETER =   1.000     SCALED MAX DOF INC =  0.8481E-03
     FORCE CONVERGENCE VALUE  = 0.2765E-01  CRITERION= 0.1020E-02
    Writing NEWTON-RAPHSON residual forces to file: file.nr005
    EQUIL ITER  12 COMPLETED.  NEW TRIANG MATRIX.  MAX DOF INC= -0.7775E-02
     LINE SEARCH PARAMETER =  0.5597     SCALED MAX DOF INC = -0.4352E-02
     FORCE CONVERGENCE VALUE  = 0.4915      CRITERION= 0.1004E-02
    Writing NEWTON-RAPHSON residual forces to file: file.nr001
    >>> PREDICTED NUMBER OF ITERATIONS FOR CONVERGENCE=  52 EXCEEDS MAX OF  26
 *** LOAD STEP     1   SUBSTEP     6  NOT COMPLETED.  CUM ITER =     56
 *** BEGIN BISECTION NUMBER   1    NEW TIME INCREMENT=  0.16875E-03

     FORCE CONVERGENCE VALUE  =  13.29      CRITERION= 0.1397E-02
    Writing NEWTON-RAPHSON residual forces to file: file.nr002
    EQUIL ITER   1 COMPLETED.  NEW TRIANG MATRIX.  MAX DOF INC=  0.8103E-02
     LINE SEARCH PARAMETER =  0.7490     SCALED MAX DOF INC =  0.6070E-02
     FORCE CONVERGENCE VALUE  =  3.566      CRITERION= 0.1316E-02
    Writing NEWTON-RAPHSON residual forces to file: file.nr003
    EQUIL ITER   2 COMPLETED.  NEW TRIANG MATRIX.  MAX DOF INC=  0.1147E-02
     LINE SEARCH PARAMETER =   1.000     SCALED MAX DOF INC =  0.1147E-02
     FORCE CONVERGENCE VALUE  = 0.2013      CRITERION= 0.1013E-02
    Writing NEWTON-RAPHSON residual forces to file: file.nr004
    EQUIL ITER   3 COMPLETED.  NEW TRIANG MATRIX.  MAX DOF INC=  0.1108E-01
     LINE SEARCH PARAMETER =  0.9185     SCALED MAX DOF INC =  0.1017E-01
     FORCE CONVERGENCE VALUE  =  2.086      CRITERION= 0.8524E-03
    Writing NEWTON-RAPHSON residual forces to file: file.nr005
    EQUIL ITER   4 COMPLETED.  NEW TRIANG MATRIX.  MAX DOF INC=  0.1417E-02
     LINE SEARCH PARAMETER =   1.000     SCALED MAX DOF INC =  0.1417E-02
     FORCE CONVERGENCE VALUE  = 0.5692E-01  CRITERION= 0.7447E-03
    Writing NEWTON-RAPHSON residual forces to file: file.nr001
    EQUIL ITER   5 COMPLETED.  NEW TRIANG MATRIX.  MAX DOF INC=  0.7083E-02
     LINE SEARCH PARAMETER =  0.7707     SCALED MAX DOF INC =  0.5459E-02
     FORCE CONVERGENCE VALUE  = 0.7807      CRITERION= 0.7059E-03
    Writing NEWTON-RAPHSON residual forces to file: file.nr002
    EQUIL ITER   6 COMPLETED.  NEW TRIANG MATRIX.  MAX DOF INC=  0.6653E-03
     LINE SEARCH PARAMETER =   1.000     SCALED MAX DOF INC =  0.6653E-03
     FORCE CONVERGENCE VALUE  = 0.1115E-01  CRITERION= 0.6786E-03
    Writing NEWTON-RAPHSON residual forces to file: file.nr003
    EQUIL ITER   7 COMPLETED.  NEW TRIANG MATRIX.  MAX DOF INC= -0.3713E-02
     LINE SEARCH PARAMETER =  0.7567     SCALED MAX DOF INC = -0.2809E-02
     FORCE CONVERGENCE VALUE  = 0.2106      CRITERION= 0.6717E-03
    Writing NEWTON-RAPHSON residual forces to file: file.nr004
    EQUIL ITER   8 COMPLETED.  NEW TRIANG MATRIX.  MAX DOF INC=  0.3841E-03
     LINE SEARCH PARAMETER =   1.000     SCALED MAX DOF INC =  0.3841E-03
     FORCE CONVERGENCE VALUE  = 0.3710E-02  CRITERION= 0.6674E-03
    Writing NEWTON-RAPHSON residual forces to file: file.nr005
    EQUIL ITER   9 COMPLETED.  NEW TRIANG MATRIX.  MAX DOF INC= -0.9745E-03
     LINE SEARCH PARAMETER =  0.9702     SCALED MAX DOF INC = -0.9455E-03
     FORCE CONVERGENCE VALUE  = 0.2360E-01  CRITERION= 0.6665E-03
    Writing NEWTON-RAPHSON residual forces to file: file.nr001
    EQUIL ITER  10 COMPLETED.  NEW TRIANG MATRIX.  MAX DOF INC= -0.7589E-04
     LINE SEARCH PARAMETER =   1.000     SCALED MAX DOF INC = -0.7589E-04
     FORCE CONVERGENCE VALUE  = 0.1691E-03  CRITERION= 0.6662E-03 <<< CONVERGED
    Writing NEWTON-RAPHSON residual forces to file: file.nr002
    >>> SOLUTION CONVERGED AFTER EQUILIBRIUM ITERATION  10
 *** LOAD STEP     1   SUBSTEP     6  COMPLETED.    CUM ITER =     65
 *** TIME =  0.108125E-02     TIME INC =  0.168750E-03
 *** AUTO STEP TIME:  NEXT TIME INC = 0.16875E-03  UNCHANGED

     FORCE CONVERGENCE VALUE  =  8.925      CRITERION= 0.1368E-02
    Writing NEWTON-RAPHSON residual forces to file: file.nr003
    EQUIL ITER   1 COMPLETED.  NEW TRIANG MATRIX.  MAX DOF INC=  0.7992E-02
     LINE SEARCH PARAMETER =  0.7915     SCALED MAX DOF INC =  0.6325E-02
     FORCE CONVERGENCE VALUE  =  2.035      CRITERION= 0.1370E-02
    Writing NEWTON-RAPHSON residual forces to file: file.nr004
    EQUIL ITER   2 COMPLETED.  NEW TRIANG MATRIX.  MAX DOF INC=  0.1191E-02
     LINE SEARCH PARAMETER =   1.000     SCALED MAX DOF INC =  0.1191E-02
     FORCE CONVERGENCE VALUE  = 0.9601E-01  CRITERION= 0.1225E-02
    Writing NEWTON-RAPHSON residual forces to file: file.nr005
    EQUIL ITER   3 COMPLETED.  NEW TRIANG MATRIX.  MAX DOF INC=  0.1167E-01
     LINE SEARCH PARAMETER =  0.6289     SCALED MAX DOF INC =  0.7342E-02
     FORCE CONVERGENCE VALUE  =  1.361      CRITERION= 0.1174E-02
    Writing NEWTON-RAPHSON residual forces to file: file.nr001
    EQUIL ITER   4 COMPLETED.  NEW TRIANG MATRIX.  MAX DOF INC=  0.1328E-02
     LINE SEARCH PARAMETER =   1.000     SCALED MAX DOF INC =  0.1328E-02
     FORCE CONVERGENCE VALUE  = 0.4387E-01  CRITERION= 0.1083E-02
    Writing NEWTON-RAPHSON residual forces to file: file.nr002
    EQUIL ITER   5 COMPLETED.  NEW TRIANG MATRIX.  MAX DOF INC=  0.2877E-02
     LINE SEARCH PARAMETER =   1.000     SCALED MAX DOF INC =  0.2877E-02
     FORCE CONVERGENCE VALUE  = 0.1746      CRITERION= 0.1029E-02
    Writing NEWTON-RAPHSON residual forces to file: file.nr003
    EQUIL ITER   6 COMPLETED.  NEW TRIANG MATRIX.  MAX DOF INC=  0.9088E-03
     LINE SEARCH PARAMETER =   1.000     SCALED MAX DOF INC =  0.9088E-03
     FORCE CONVERGENCE VALUE  = 0.3287E-01  CRITERION= 0.9884E-03
    Writing NEWTON-RAPHSON residual forces to file: file.nr004
    EQUIL ITER   7 COMPLETED.  NEW TRIANG MATRIX.  MAX DOF INC= -0.2723E-02
     LINE SEARCH PARAMETER =   1.000     SCALED MAX DOF INC = -0.2723E-02
     FORCE CONVERGENCE VALUE  = 0.2010      CRITERION= 0.9648E-03
    Writing NEWTON-RAPHSON residual forces to file: file.nr005
    EQUIL ITER   8 COMPLETED.  NEW TRIANG MATRIX.  MAX DOF INC=  0.5876E-03
     LINE SEARCH PARAMETER =   1.000     SCALED MAX DOF INC =  0.5876E-03
     FORCE CONVERGENCE VALUE  = 0.1121E-01  CRITERION= 0.9476E-03
    Writing NEWTON-RAPHSON residual forces to file: file.nr001
    EQUIL ITER   9 COMPLETED.  NEW TRIANG MATRIX.  MAX DOF INC= -0.1776E-02
     LINE SEARCH PARAMETER =   1.000     SCALED MAX DOF INC = -0.1776E-02
     FORCE CONVERGENCE VALUE  = 0.8286E-01  CRITERION= 0.9391E-03
    Writing NEWTON-RAPHSON residual forces to file: file.nr002
    EQUIL ITER  10 COMPLETED.  NEW TRIANG MATRIX.  MAX DOF INC=  0.3038E-03
     LINE SEARCH PARAMETER =   1.000     SCALED MAX DOF INC =  0.3038E-03
     FORCE CONVERGENCE VALUE  = 0.3780E-02  CRITERION= 0.9325E-03
    Writing NEWTON-RAPHSON residual forces to file: file.nr003
    EQUIL ITER  11 COMPLETED.  NEW TRIANG MATRIX.  MAX DOF INC= -0.5646E-03
     LINE SEARCH PARAMETER =   1.000     SCALED MAX DOF INC = -0.5646E-03
     FORCE CONVERGENCE VALUE  = 0.8787E-02  CRITERION= 0.9292E-03
[...]
    Writing NEWTON-RAPHSON residual forces to file: file.nr002
    EQUIL ITER   4 COMPLETED.  NEW TRIANG MATRIX.  MAX DOF INC= -0.1570E-02
     LINE SEARCH PARAMETER =   1.000     SCALED MAX DOF INC = -0.1570E-02
     FORCE CONVERGENCE VALUE  =  2.856      CRITERION=  6.828     <<< CONVERGED
    Writing NEWTON-RAPHSON residual forces to file: file.nr003
    >>> SOLUTION CONVERGED AFTER EQUILIBRIUM ITERATION   4
 *** LOAD STEP     1   SUBSTEP    50  COMPLETED.    CUM ITER =    545
 *** TIME =  0.182983         TIME INC =  0.414277E-01
 *** AUTO TIME STEP:  NEXT TIME INC = 0.62142E-01  INCREASED (FACTOR = 1.5000)

     FORCE CONVERGENCE VALUE  = 0.1469E+05  CRITERION=  9.654    
    Writing NEWTON-RAPHSON residual forces to file: file.nr004
    EQUIL ITER   1 COMPLETED.  NEW TRIANG MATRIX.  MAX DOF INC= -0.2394E-01
     LINE SEARCH PARAMETER =  0.9998     SCALED MAX DOF INC = -0.2393E-01
     FORCE CONVERGENCE VALUE  =  57.74      CRITERION=  9.230    
    Writing NEWTON-RAPHSON residual forces to file: file.nr005
    EQUIL ITER   2 COMPLETED.  NEW TRIANG MATRIX.  MAX DOF INC=  0.1526E-01
     LINE SEARCH PARAMETER =  0.9761     SCALED MAX DOF INC =  0.1490E-01
     FORCE CONVERGENCE VALUE  =  9.769      CRITERION=  9.394    
    Writing NEWTON-RAPHSON residual forces to file: file.nr001
    EQUIL ITER   3 COMPLETED.  NEW TRIANG MATRIX.  MAX DOF INC= -0.4587E-03
     LINE SEARCH PARAMETER =   1.000     SCALED MAX DOF INC = -0.4587E-03
     FORCE CONVERGENCE VALUE  =  1.932      CRITERION=  9.396     <<< CONVERGED
    Writing NEWTON-RAPHSON residual forces to file: file.nr002
    >>> SOLUTION CONVERGED AFTER EQUILIBRIUM ITERATION   3
 *** LOAD STEP     1   SUBSTEP    51  COMPLETED.    CUM ITER =    548
 *** TIME =  0.245125         TIME INC =  0.621415E-01
 *** AUTO TIME STEP:  NEXT TIME INC = 0.93212E-01  INCREASED (FACTOR = 1.5000)

     FORCE CONVERGENCE VALUE  = 0.3391E+05  CRITERION=  13.93    
    Writing NEWTON-RAPHSON residual forces to file: file.nr003
    EQUIL ITER   1 COMPLETED.  NEW TRIANG MATRIX.  MAX DOF INC= -0.3826E-01
     LINE SEARCH PARAMETER =  0.9983     SCALED MAX DOF INC = -0.3820E-01
     FORCE CONVERGENCE VALUE  =  412.4      CRITERION=  12.69    
    Writing NEWTON-RAPHSON residual forces to file: file.nr004
    EQUIL ITER   2 COMPLETED.  NEW TRIANG MATRIX.  MAX DOF INC=  0.3232E-01
     LINE SEARCH PARAMETER =  0.8720     SCALED MAX DOF INC =  0.2819E-01
     FORCE CONVERGENCE VALUE  =  118.2      CRITERION=  13.17    
    Writing NEWTON-RAPHSON residual forces to file: file.nr005
    EQUIL ITER   3 COMPLETED.  NEW TRIANG MATRIX.  MAX DOF INC= -0.5045E-02
     LINE SEARCH PARAMETER =  0.9527     SCALED MAX DOF INC = -0.4806E-02
     FORCE CONVERGENCE VALUE  =  22.10      CRITERION=  13.23    
    Writing NEWTON-RAPHSON residual forces to file: file.nr001
    EQUIL ITER   4 COMPLETED.  NEW TRIANG MATRIX.  MAX DOF INC=  0.4237E-03
     LINE SEARCH PARAMETER =  0.9686     SCALED MAX DOF INC =  0.4104E-03
     FORCE CONVERGENCE VALUE  =  2.182      CRITERION=  13.23     <<< CONVERGED
    Writing NEWTON-RAPHSON residual forces to file: file.nr002
    EQUIL ITER   5 COMPLETED.  NEW TRIANG MATRIX.  MAX DOF INC= -0.1173E-03
     LINE SEARCH PARAMETER =   1.000     SCALED MAX DOF INC = -0.1173E-03
    >>> SOLUTION CONVERGED AFTER EQUILIBRIUM ITERATION   5
 *** LOAD STEP     1   SUBSTEP    52  COMPLETED.    CUM ITER =    553
 *** TIME =  0.338337         TIME INC =  0.932123E-01
 *** AUTO STEP TIME:  NEXT TIME INC = 0.93212E-01  UNCHANGED

     FORCE CONVERGENCE VALUE  = 0.4153E+05  CRITERION=  18.04    
    Writing NEWTON-RAPHSON residual forces to file: file.nr003
    EQUIL ITER   1 COMPLETED.  NEW TRIANG MATRIX.  MAX DOF INC= -0.3901E-01
     LINE SEARCH PARAMETER =  0.9997     SCALED MAX DOF INC = -0.3900E-01
     FORCE CONVERGENCE VALUE  =  737.2      CRITERION=  16.42    
    Writing NEWTON-RAPHSON residual forces to file: file.nr004
    EQUIL ITER   2 COMPLETED.  NEW TRIANG MATRIX.  MAX DOF INC=  0.3246E-01
     LINE SEARCH PARAMETER =  0.9496     SCALED MAX DOF INC =  0.3082E-01
     FORCE CONVERGENCE VALUE  =  64.55      CRITERION=  17.08    
    Writing NEWTON-RAPHSON residual forces to file: file.nr005
    EQUIL ITER   3 COMPLETED.  NEW TRIANG MATRIX.  MAX DOF INC= -0.5828E-02
     LINE SEARCH PARAMETER =   1.000     SCALED MAX DOF INC = -0.5828E-02
     FORCE CONVERGENCE VALUE  =  30.22      CRITERION=  17.04    
    Writing NEWTON-RAPHSON residual forces to file: file.nr001
    EQUIL ITER   4 COMPLETED.  NEW TRIANG MATRIX.  MAX DOF INC=  0.7834E-03
     LINE SEARCH PARAMETER =   1.000     SCALED MAX DOF INC =  0.7834E-03
     FORCE CONVERGENCE VALUE  =  2.747      CRITERION=  17.04     <<< CONVERGED
    Writing NEWTON-RAPHSON residual forces to file: file.nr002
    >>> SOLUTION CONVERGED AFTER EQUILIBRIUM ITERATION   4
 *** LOAD STEP     1   SUBSTEP    53  COMPLETED.    CUM ITER =    557
 *** TIME =  0.431549         TIME INC =  0.932123E-01
 *** AUTO TIME STEP:  NEXT TIME INC = 0.10000      INCREASED (FACTOR = 1.0728)

     FORCE CONVERGENCE VALUE  = 0.4671E+05  CRITERION=  22.00    
    Writing NEWTON-RAPHSON residual forces to file: file.nr003
    EQUIL ITER   1 COMPLETED.  NEW TRIANG MATRIX.  MAX DOF INC= -0.2255E-01
     LINE SEARCH PARAMETER =  0.9991     SCALED MAX DOF INC = -0.2253E-01
     FORCE CONVERGENCE VALUE  =  331.3      CRITERION=  20.42    
    Writing NEWTON-RAPHSON residual forces to file: file.nr004
    EQUIL ITER   2 COMPLETED.  NEW TRIANG MATRIX.  MAX DOF INC=  0.1992E-01
     LINE SEARCH PARAMETER =  0.9345     SCALED MAX DOF INC =  0.1861E-01
     FORCE CONVERGENCE VALUE  =  91.41      CRITERION=  21.07    
    Writing NEWTON-RAPHSON residual forces to file: file.nr005
    EQUIL ITER   3 COMPLETED.  NEW TRIANG MATRIX.  MAX DOF INC= -0.2303E-02
     LINE SEARCH PARAMETER =   1.000     SCALED MAX DOF INC = -0.2303E-02
     FORCE CONVERGENCE VALUE  =  6.867      CRITERION=  21.10     <<< CONVERGED
    Writing NEWTON-RAPHSON residual forces to file: file.nr001
    >>> SOLUTION CONVERGED AFTER EQUILIBRIUM ITERATION   3
 *** LOAD STEP     1   SUBSTEP    54  COMPLETED.    CUM ITER =    560
 *** TIME =  0.531549         TIME INC =  0.100000    
 *** AUTO STEP TIME:  NEXT TIME INC = 0.10000      UNCHANGED

     FORCE CONVERGENCE VALUE  = 0.4926E+05  CRITERION=  26.07    
    Writing NEWTON-RAPHSON residual forces to file: file.nr002
    EQUIL ITER   1 COMPLETED.  NEW TRIANG MATRIX.  MAX DOF INC= -0.1943E-01
     LINE SEARCH PARAMETER =  0.9995     SCALED MAX DOF INC = -0.1942E-01
     FORCE CONVERGENCE VALUE  =  306.9      CRITERION=  24.46    
    Writing NEWTON-RAPHSON residual forces to file: file.nr003
    EQUIL ITER   2 COMPLETED.  NEW TRIANG MATRIX.  MAX DOF INC=  0.2310E-01
     LINE SEARCH PARAMETER =  0.9754     SCALED MAX DOF INC =  0.2253E-01
     FORCE CONVERGENCE VALUE  =  60.71      CRITERION=  25.13    
    Writing NEWTON-RAPHSON residual forces to file: file.nr004
    EQUIL ITER   3 COMPLETED.  NEW TRIANG MATRIX.  MAX DOF INC=  0.7364E-03
     LINE SEARCH PARAMETER =  0.9886     SCALED MAX DOF INC =  0.7280E-03
     FORCE CONVERGENCE VALUE  =  2.352      CRITERION=  25.14     <<< CONVERGED
    Writing NEWTON-RAPHSON residual forces to file: file.nr005
    EQUIL ITER   4 COMPLETED.  NEW TRIANG MATRIX.  MAX DOF INC= -0.1276E-03
     LINE SEARCH PARAMETER =   1.000     SCALED MAX DOF INC = -0.1276E-03
    >>> SOLUTION CONVERGED AFTER EQUILIBRIUM ITERATION   4
 *** LOAD STEP     1   SUBSTEP    55  COMPLETED.    CUM ITER =    564
 *** TIME =  0.631549         TIME INC =  0.100000    
 *** AUTO STEP TIME:  NEXT TIME INC = 0.10000      UNCHANGED

     FORCE CONVERGENCE VALUE  = 0.4994E+05  CRITERION=  29.99    
    Writing NEWTON-RAPHSON residual forces to file: file.nr001
    EQUIL ITER   1 COMPLETED.  NEW TRIANG MATRIX.  MAX DOF INC= -0.2596E-01
     LINE SEARCH PARAMETER =  0.9995     SCALED MAX DOF INC = -0.2594E-01
     FORCE CONVERGENCE VALUE  =  215.0      CRITERION=  28.57    
    Writing NEWTON-RAPHSON residual forces to file: file.nr002
    EQUIL ITER   2 COMPLETED.  NEW TRIANG MATRIX.  MAX DOF INC= -0.1448E-01
     LINE SEARCH PARAMETER =  0.9505     SCALED MAX DOF INC = -0.1377E-01
     FORCE CONVERGENCE VALUE  =  58.80      CRITERION=  29.12    
    Writing NEWTON-RAPHSON residual forces to file: file.nr003
    EQUIL ITER   3 COMPLETED.  NEW TRIANG MATRIX.  MAX DOF INC= -0.9079E-03
     LINE SEARCH PARAMETER =  0.9161     SCALED MAX DOF INC = -0.8317E-03
     FORCE CONVERGENCE VALUE  =  8.002      CRITERION=  29.14     <<< CONVERGED
    Writing NEWTON-RAPHSON residual forces to file: file.nr004
    EQUIL ITER   4 COMPLETED.  NEW TRIANG MATRIX.  MAX DOF INC= -0.1256E-03
     LINE SEARCH PARAMETER =   1.000     SCALED MAX DOF INC = -0.1256E-03
    >>> SOLUTION CONVERGED AFTER EQUILIBRIUM ITERATION   4
 *** LOAD STEP     1   SUBSTEP    56  COMPLETED.    CUM ITER =    568
 *** TIME =  0.731549         TIME INC =  0.100000    
 *** AUTO STEP TIME:  NEXT TIME INC = 0.10000      UNCHANGED

     FORCE CONVERGENCE VALUE  = 0.5052E+05  CRITERION=  33.96    
    Writing NEWTON-RAPHSON residual forces to file: file.nr005
    EQUIL ITER   1 COMPLETED.  NEW TRIANG MATRIX.  MAX DOF INC= -0.2648E-01
     LINE SEARCH PARAMETER =  0.9996     SCALED MAX DOF INC = -0.2647E-01
     FORCE CONVERGENCE VALUE  =  169.5      CRITERION=  32.65    
    Writing NEWTON-RAPHSON residual forces to file: file.nr001
    EQUIL ITER   2 COMPLETED.  NEW TRIANG MATRIX.  MAX DOF INC= -0.1485E-01
     LINE SEARCH PARAMETER =  0.9552     SCALED MAX DOF INC = -0.1418E-01
     FORCE CONVERGENCE VALUE  =  28.39      CRITERION=  33.12     <<< CONVERGED
    Writing NEWTON-RAPHSON residual forces to file: file.nr002
    EQUIL ITER   3 COMPLETED.  NEW TRIANG MATRIX.  MAX DOF INC=  0.7526E-03
     LINE SEARCH PARAMETER =   1.000     SCALED MAX DOF INC =  0.7526E-03
    >>> SOLUTION CONVERGED AFTER EQUILIBRIUM ITERATION   3
 *** LOAD STEP     1   SUBSTEP    57  COMPLETED.    CUM ITER =    571
 *** TIME =  0.831549         TIME INC =  0.100000    
 *** AUTO STEP TIME:  NEXT TIME INC = 0.10000      UNCHANGED

     FORCE CONVERGENCE VALUE  = 0.5120E+05  CRITERION=  37.92    
    Writing NEWTON-RAPHSON residual forces to file: file.nr003
    EQUIL ITER   1 COMPLETED.  NEW TRIANG MATRIX.  MAX DOF INC= -0.2953E-01
     LINE SEARCH PARAMETER =  0.9996     SCALED MAX DOF INC = -0.2952E-01
     FORCE CONVERGENCE VALUE  =  116.5      CRITERION=  36.68    
    Writing NEWTON-RAPHSON residual forces to file: file.nr004
    EQUIL ITER   2 COMPLETED.  NEW TRIANG MATRIX.  MAX DOF INC= -0.1174E-01
     LINE SEARCH PARAMETER =  0.9681     SCALED MAX DOF INC = -0.1137E-01
     FORCE CONVERGENCE VALUE  =  31.09      CRITERION=  37.08     <<< CONVERGED
    Writing NEWTON-RAPHSON residual forces to file: file.nr005
    EQUIL ITER   3 COMPLETED.  NEW TRIANG MATRIX.  MAX DOF INC=  0.4414E-03
     LINE SEARCH PARAMETER =   1.000     SCALED MAX DOF INC =  0.4414E-03
    >>> SOLUTION CONVERGED AFTER EQUILIBRIUM ITERATION   3
 *** LOAD STEP     1   SUBSTEP    58  COMPLETED.    CUM ITER =    574
 *** TIME =  0.931549         TIME INC =  0.100000    
 *** AUTO TIME STEP:  NEXT TIME INC = 0.68451E-01  DECREASED (FACTOR = 0.6845)

     FORCE CONVERGENCE VALUE  = 0.2982E+05  CRITERION=  40.29    
    Writing NEWTON-RAPHSON residual forces to file: file.nr001
    EQUIL ITER   1 COMPLETED.  NEW TRIANG MATRIX.  MAX DOF INC= -0.1617E-01
     LINE SEARCH PARAMETER =  0.9998     SCALED MAX DOF INC = -0.1617E-01
     FORCE CONVERGENCE VALUE  =  43.58      CRITERION=  39.65    
    Writing NEWTON-RAPHSON residual forces to file: file.nr002
    EQUIL ITER   2 COMPLETED.  NEW TRIANG MATRIX.  MAX DOF INC= -0.9862E-02
     LINE SEARCH PARAMETER =   1.000     SCALED MAX DOF INC = -0.9862E-02
     FORCE CONVERGENCE VALUE  =  26.68      CRITERION=  39.80     <<< CONVERGED
    Writing NEWTON-RAPHSON residual forces to file: file.nr003
    >>> SOLUTION CONVERGED AFTER EQUILIBRIUM ITERATION   2
 *** LOAD STEP     1   SUBSTEP    59  COMPLETED.    CUM ITER =    576
 *** TIME =   1.00000         TIME INC =  0.684508E-01


 *** ANSYS BINARY FILE STATISTICS
  BUFFER SIZE USED= 16384
        0.250 MB WRITTEN ON ELEMENT MATRIX FILE: file0.emat
       11.750 MB WRITTEN ON ELEMENT SAVED DATA FILE: file0.esav
       13.000 MB WRITTEN ON ASSEMBLED MATRIX FILE: file0.full
       29.125 MB WRITTEN ON RESULTS FILE: file0.rst
 *************** Write FE CONNECTORS *********

 WRITE OUT CONSTRAINT EQUATIONS TO FILE= file.ce                                                                                                                                                                                                                                                             
 ****************************************************
 *************** FINISHED SOLVE FOR LS 1 *************

 PARAMETER _DS_PROGRESS  DELETED.

 *GET  _WALLASOL  FROM  ACTI  ITEM=TIME WALL  VALUE=  8.50194444    

 PRINTOUT RESUMED BY /GOP

 FINISH SOLUTION PROCESSING


 ***** ROUTINE COMPLETED *****  CP =       216.891



 *** ANSYS - ENGINEERING ANALYSIS SYSTEM  RELEASE Release 17.0     17.0     ***
 DISTRIBUTED ANSYS Mechanical Premium                          

 00338920  VERSION=WINDOWS x64   08:30:07  NOV 07, 2024 CP=    216.891

 DAIHATSU TERIOS 2006-2018 TRAS--Static Structural (B5)                        



          ***** ANSYS RESULTS INTERPRETATION (POST1) *****

 *** NOTE ***                            CP =     216.891   TIME= 08:30:07
 Reading results into the database (SET command) will update the current 
 displacement and force boundary conditions in the database with the     
 values from the results file for that load set.  Note that any          
 subsequent solutions will use these values unless action is taken to    
 either SAVE the current values or not overwrite them (/EXIT,NOSAVE).    

 Set Encoding of XML File to:ISO-8859-1

 Set Output of XML File to:
     PARM,     ,     ,     ,     ,     ,     ,     ,     ,     ,     ,     ,
         ,     ,     ,     ,     ,     ,     ,

 DATABASE WRITTEN ON FILE  parm.xml                                                                                                                                                                                                                                                            

 EXIT THE ANSYS POST1 DATABASE PROCESSOR


 ***** ROUTINE COMPLETED *****  CP =       216.891



 PRINTOUT RESUMED BY /GOP

 *GET  _WALLDONE  FROM  ACTI  ITEM=TIME WALL  VALUE=  8.50194444    

 PARAMETER _PREPTIME =     0.000000000    

 PARAMETER _SOLVTIME =     638.0000000    

 PARAMETER _POSTTIME =     0.000000000    

 PARAMETER _TOTALTIM =     638.0000000    

 EXIT ANSYS WITHOUT SAVING DATABASE


 NUMBER OF WARNING MESSAGES ENCOUNTERED=         10
 NUMBER OF ERROR   MESSAGES ENCOUNTERED=          1

 *** WARNING ***                         CP =     216.891   TIME= 08:30:07
 During this session the elapsed time exceeds the CPU time by 197%.      
 Often this indicates either a lack of physical memory (RAM) required    
 to efficiently handle this simulation or it indicates a particularly    
 slow hard drive configuration.  This simulation can be expected to run  
 faster on identical hardware if additional RAM or a faster hard drive   
 configuration is made available.  For more details, please see the      
 ANSYS Performance Guide which is part of the ANSYS Help system.         

+--------- D I S T R I B U T E D   A N S Y S   S T A T I S T I C S ------------+

Release: Release 17.0       Build: 17.0       Update: UP20151214   Platform: WINDOWS x64 
Date Run: 11/07/2024   Time: 08:30
Operating System: Windows 10  (Build: 22631)
Windows Process ID: 18020       

Processor Model: 12th Gen Intel(R) Core(TM) i7-12700

Compiler: Intel(R) FORTRAN Compiler Version 15.0.2  (Build: 20150121)
          Intel(R) C/C++ Compiler Version 15.0.2  (Build: 20150121)
          Intel(R) Math Kernel Library Version 11.2.3 Product Build 20150413

Number of machines requested            :    1
Total number of cores available         :   20
Number of physical cores available      :   12
Number of processes requested           :    4
Number of threads per process requested :    1
Total number of cores requested         :    4 (Distributed Memory Parallel)               
MPI Type: INTELMPI
MPI Version: Intel(R) MPI Library 5.0 Update 3 for Windows* OS


GPU Acceleration: Not Requested

Job Name: file0
Input File: dummy.dat

  Core                Machine Name   Working Directory
  ----------------------------------------------------
     0     IMFTTNAPP.Grupo_A.local   C:\Users\aprietop\Documents\2024\DAIHATSU TERIOS 2006-2018 TRAS\ANALISIS ANSYS\_ProjectScratch\Scr90B9
     1     IMFTTNAPP.Grupo_A.local   C:\Users\aprietop\Documents\2024\DAIHATSU TERIOS 2006-2018 TRAS\ANALISIS ANSYS\_ProjectScratch\Scr90B9
     2     IMFTTNAPP.Grupo_A.local   C:\Users\aprietop\Documents\2024\DAIHATSU TERIOS 2006-2018 TRAS\ANALISIS ANSYS\_ProjectScratch\Scr90B9
     3     IMFTTNAPP.Grupo_A.local   C:\Users\aprietop\Documents\2024\DAIHATSU TERIOS 2006-2018 TRAS\ANALISIS ANSYS\_ProjectScratch\Scr90B9
 
Latency time from master to core    1 =    0.519 microseconds
Latency time from master to core    2 =    0.483 microseconds
Latency time from master to core    3 =    0.473 microseconds
 
Communication speed from master to core    1 =  3874.46 MB/sec
Communication speed from master to core    2 = 13174.97 MB/sec
Communication speed from master to core    3 = 11609.08 MB/sec

Total CPU time for main thread                    :      215.2 seconds
Total CPU time summed for all threads             :      216.9 seconds

Elapsed time spent pre-processing model (/PREP7)  :        0.0 seconds
Elapsed time spent solution - preprocessing       :        0.5 seconds
Elapsed time spent computing solution             :      637.0 seconds
Elapsed time spent solution - postprocessing      :        0.1 seconds
Elapsed time spent post-processing model (/POST1) :        0.0 seconds
 
Equation solver used                              :            Sparse (symmetric)

Maximum total memory used                         :      607.0 MB
Maximum total memory allocated                    :     5184.0 MB
Maximum total memory available                    :         32 GB

+------ E N D   D I S T R I B U T E D   A N S Y S   S T A T I S T I C S -------+


 *---------------------------------------------------------------------------*
 |                                                                           |
 |                       DISTRIBUTED ANSYS RUN COMPLETED                     |
 |                                                                           |
 |---------------------------------------------------------------------------|
 |                                                                           |
 | Ansys Release 17.0          Build 17.0         UP20151214     WINDOWS x64 |
 |                                                                           |
 |---------------------------------------------------------------------------|
 |                                                                           |
 | Database Requested(-db)  1024 MB    Scratch Memory Requested      1024 MB |
 | Maximum Database Used      17 MB    Maximum Scratch Memory Used    151 MB |
 |                                                                           |
 |---------------------------------------------------------------------------|
 |                                                                           |
 |        CP Time      (sec) =        216.891       Time  =  08:30:07        |
 |        Elapsed Time (sec) =        639.000       Date  =  11/07/2024      |
 |                                                                           |
 *---------------------------------------------------------------------------*
